data_image0
_chemical_formula_structural       O24
_chemical_formula_sum              "O24"
_cell_length_a       6.65259782
_cell_length_b       6.76810209
_cell_length_c       7.45043691
_cell_angle_alpha    90.0
_cell_angle_beta     90.0
_cell_angle_gamma    90.0

_space_group_name_H-M_alt    "P 1"
_space_group_IT_number       1

loop_
  _space_group_symop_operation_xyz
  'x, y, z'

loop_
  _atom_site_type_symbol
  _atom_site_label
  _atom_site_symmetry_multiplicity
  _atom_site_fract_x
  _atom_site_fract_y
  _atom_site_fract_z
  _atom_site_occupancy
  O   O1        1.0  0.7656855400000001  0.36535769000000007  0.014498200000000001  1.0000
  O   O2        1.0  0.45621934  0.9510571800000001  0.68682577  1.0000
  O   O3        1.0  0.26568554  0.13464231  0.9855018  1.0000
  O   O4        1.0  0.73431446  0.63464231  0.5144982  1.0000
  O   O5        1.0  0.26568554  0.36535769000000007  0.48550180000000004  1.0000
  O   O6        1.0  0.15399171000000003  0.18474189000000002  0.11781934000000001  1.0000
  O   O7        1.0  0.65399171  0.18474189000000002  0.38218066000000006  1.0000
  O   O8        1.0  0.04378066  0.048942820000000005  0.18682577  1.0000
  O   O9        1.0  0.9562193400000001  0.54894282  0.31317423  1.0000
  O   O10       1.0  0.04378066  0.45105718000000006  0.68682577  1.0000
  O   O11       1.0  0.54378066  0.048942820000000005  0.31317423  1.0000
  O   O12       1.0  0.7656855400000001  0.13464231  0.5144982  1.0000
  O   O13       1.0  0.23431446000000003  0.63464231  0.9855018  1.0000
  O   O14       1.0  0.9562193400000001  0.9510571800000001  0.81317423  1.0000
  O   O15       1.0  0.45621934  0.54894282  0.18682577  1.0000
  O   O16       1.0  0.65399171  0.31525811  0.8821806600000001  1.0000
  O   O17       1.0  0.34600829  0.8152581100000001  0.6178193400000002  1.0000
  O   O18       1.0  0.73431446  0.86535769  0.014498200000000001  1.0000
  O   O19       1.0  0.84600829  0.6847418900000001  0.38218066000000006  1.0000
  O   O20       1.0  0.15399171000000003  0.31525811  0.6178193400000002  1.0000
  O   O21       1.0  0.23431446000000003  0.86535769  0.48550180000000004  1.0000
  O   O22       1.0  0.54378066  0.45105718000000006  0.81317423  1.0000
  O   O23       1.0  0.84600829  0.8152581100000001  0.8821806600000001  1.0000
  O   O24       1.0  0.34600829  0.6847418900000001  0.11781934000000001  1.0000
