data_image0
_chemical_formula_structural       Nd2Ga8Co18
_chemical_formula_sum              "Nd2 Ga8 Co18"
_cell_length_a       8.134738690191407
_cell_length_b       8.134738690191407
_cell_length_c       8.134738690191407
_cell_angle_alpha    121.2004811528017
_cell_angle_beta     121.20048115280171
_cell_angle_gamma    87.93298543333249

_space_group_name_H-M_alt    "P 1"
_space_group_IT_number       1

loop_
  _space_group_symop_operation_xyz
  'x, y, z'

loop_
  _atom_site_type_symbol
  _atom_site_label
  _atom_site_symmetry_multiplicity
  _atom_site_fract_x
  _atom_site_fract_y
  _atom_site_fract_z
  _atom_site_occupancy
  Nd  Nd1       1.0  0.75  0.75  1.39009189369255e-17  1.0000
  Nd  Nd2       1.0  0.25  0.25  0.0  1.0000
  Ga  Ga1       1.0  0.05369300000000005  0.5536929999999999  0.8598379999999999  1.0000
  Ga  Ga2       1.0  0.6938549999999999  0.19385500000000006  0.14016199999999998  1.0000
  Ga  Ga3       1.0  0.553693  0.6938549999999999  0.49999999999999994  1.0000
  Ga  Ga4       1.0  0.19385499999999992  0.053693  0.49999999999999994  1.0000
  Ga  Ga5       1.0  0.9463069999999999  0.446307  0.14016199999999998  1.0000
  Ga  Ga6       1.0  0.306145  0.8061449999999999  0.8598379999999999  1.0000
  Ga  Ga7       1.0  0.4463070000000001  0.306145  0.49999999999999994  1.0000
  Ga  Ga8       1.0  0.8061450000000001  0.9463070000000001  0.5  1.0000
  Co  Co1       1.0  0.061228  0.19811599999999996  0.25934499999999994  1.0000
  Co  Co2       1.0  0.938772  0.801884  0.7406549999999998  1.0000
  Co  Co3       1.0  0.5612279999999998  0.301884  0.8631119999999999  1.0000
  Co  Co4       1.0  0.4387720000000002  0.698116  0.13688800000000004  1.0000
  Co  Co5       1.0  0.801884  0.06122800000000004  0.863112  1.0000
  Co  Co6       1.0  0.19811600000000004  0.938772  0.136888  1.0000
  Co  Co7       1.0  0.698116  0.561228  0.259345  1.0000
  Co  Co8       1.0  0.3018839999999999  0.43877199999999994  0.7406549999999998  1.0000
  Co  Co9       1.0  0.43927299999999997  0.939273  0.7266  1.0000
  Co  Co10      1.0  0.21267300000000008  0.7126729999999999  0.2734  1.0000
  Co  Co11      1.0  0.9392730000000001  0.21267300000000003  0.4999999999999999  1.0000
  Co  Co12      1.0  0.712673  0.439273  0.4999999999999999  1.0000
  Co  Co13      1.0  0.560727  0.06072699999999998  0.2733999999999999  1.0000
  Co  Co14      1.0  0.7873269999999999  0.287327  0.7265999999999999  1.0000
  Co  Co15      1.0  0.06072700000000008  0.7873269999999999  0.4999999999999999  1.0000
  Co  Co16      1.0  0.287327  0.560727  0.4999999999999999  1.0000
  Co  Co17      1.0  0.0  0.49999999999999994  0.49999999999999994  1.0000
  Co  Co18      1.0  0.49999999999999994  0.0  0.49999999999999994  1.0000
