data_image0
_chemical_formula_structural       Na2Sr6Nb2O12
_chemical_formula_sum              "Na2 Sr6 Nb2 O12"
_cell_length_a       6.919935418790554
_cell_length_b       6.919935418790554
_cell_length_c       6.919935293554774
_cell_angle_alpha    91.24169572261104
_cell_angle_beta     91.24169572261104
_cell_angle_gamma    91.24169178179297

_space_group_name_H-M_alt    "P 1"
_space_group_IT_number       1

loop_
  _space_group_symop_operation_xyz
  'x, y, z'

loop_
  _atom_site_type_symbol
  _atom_site_label
  _atom_site_symmetry_multiplicity
  _atom_site_fract_x
  _atom_site_fract_y
  _atom_site_fract_z
  _atom_site_occupancy
  Na  Na1       1.0  0.7500000000000001  0.7500000000000001  0.7500000000000001  1.0000
  Na  Na2       1.0  0.25  0.25  0.25  1.0000
  Sr  Sr1       1.0  0.75  0.1007969999999999  0.399203  1.0000
  Sr  Sr2       1.0  0.399203  0.75  0.100797  1.0000
  Sr  Sr3       1.0  0.10079700000000003  0.399203  0.7500000000000001  1.0000
  Sr  Sr4       1.0  0.25  0.899203  0.6007969999999999  1.0000
  Sr  Sr5       1.0  0.6007970000000001  0.25000000000000006  0.8992030000000001  1.0000
  Sr  Sr6       1.0  0.899203  0.600797  0.25  1.0000
  Nb  Nb1       1.0  0.0  0.0  0.0  1.0000
  Nb  Nb2       1.0  0.5  0.5  0.5  1.0000
  O   O1        1.0  0.927634  0.05383999999999993  0.719421  1.0000
  O   O2        1.0  0.7194209999999999  0.9276339999999998  0.05384  1.0000
  O   O3        1.0  0.05384000000000004  0.719421  0.927634  1.0000
  O   O4        1.0  0.572366  0.780579  0.44616  1.0000
  O   O5        1.0  0.4461600000000001  0.5723660000000002  0.780579  1.0000
  O   O6        1.0  0.780579  0.4461599999999999  0.572366  1.0000
  O   O7        1.0  0.07236600000000001  0.94616  0.280579  1.0000
  O   O8        1.0  0.280579  0.072366  0.94616  1.0000
  O   O9        1.0  0.9461599999999999  0.28057899999999997  0.072366  1.0000
  O   O10       1.0  0.427634  0.21942099999999995  0.55384  1.0000
  O   O11       1.0  0.2194210000000001  0.5538400000000001  0.42763400000000007  1.0000
  O   O12       1.0  0.5538400000000001  0.42763400000000007  0.21942100000000003  1.0000
