data_image0
_chemical_formula_structural       Sr4Lu2Nb2O12
_chemical_formula_sum              "Sr4 Lu2 Nb2 O12"
_cell_length_a       5.854055
_cell_length_b       5.85254
_cell_length_c       10.130707796725607
_cell_angle_alpha    90.0
_cell_angle_beta     125.1543232585671
_cell_angle_gamma    90.0

_space_group_name_H-M_alt    "P 1"
_space_group_IT_number       1

loop_
  _space_group_symop_operation_xyz
  'x, y, z'

loop_
  _atom_site_type_symbol
  _atom_site_label
  _atom_site_symmetry_multiplicity
  _atom_site_fract_x
  _atom_site_fract_y
  _atom_site_fract_z
  _atom_site_occupancy
  Sr  Sr1       1.0  0.25564299999999995  0.47441500000000003  0.752721  1.0000
  Sr  Sr2       1.0  0.255643  0.025585000000000004  0.252721  1.0000
  Sr  Sr3       1.0  0.7443570000000002  0.525585  0.24727900000000003  1.0000
  Sr  Sr4       1.0  0.7443570000000002  0.974415  0.747279  1.0000
  Lu  Lu1       1.0  0.0  0.0  0.5  1.0000
  Lu  Lu2       1.0  0.0  0.5  0.0  1.0000
  Nb  Nb1       1.0  0.5  0.5  0.5  1.0000
  Nb  Nb2       1.0  0.5  0.0  0.0  1.0000
  O   O1        1.0  0.33504900000000004  0.219796  0.534501  1.0000
  O   O2        1.0  0.335049  0.280204  0.034501  1.0000
  O   O3        1.0  0.664951  0.780204  0.465499  1.0000
  O   O4        1.0  0.6649510000000001  0.7197960000000001  0.965499  1.0000
  O   O5        1.0  0.73533  0.20361  0.9601799999999999  1.0000
  O   O6        1.0  0.73533  0.29639  0.46018  1.0000
  O   O7        1.0  0.26467  0.79639  0.03982  1.0000
  O   O8        1.0  0.26467  0.70361  0.53982  1.0000
  O   O9        1.0  0.18842599999999995  0.014062  0.760376  1.0000
  O   O10       1.0  0.18842600000000004  0.485938  0.260376  1.0000
  O   O11       1.0  0.811574  0.985938  0.239624  1.0000
  O   O12       1.0  0.8115739999999999  0.514062  0.7396239999999998  1.0000
