data_image0
_chemical_formula_structural       Cu2Cl2F20
_chemical_formula_sum              "Cu2 Cl2 F20"
_cell_length_a       8.82623131
_cell_length_b       4.37678382343558
_cell_length_c       8.112278040846531
_cell_angle_alpha    82.8627387243157
_cell_angle_beta     90.0
_cell_angle_gamma    90.0

_space_group_name_H-M_alt    "P 1"
_space_group_IT_number       1

loop_
  _space_group_symop_operation_xyz
  'x, y, z'

loop_
  _atom_site_type_symbol
  _atom_site_label
  _atom_site_symmetry_multiplicity
  _atom_site_fract_x
  _atom_site_fract_y
  _atom_site_fract_z
  _atom_site_occupancy
  Cu  Cu1       1.0  0.49999999999999994  0.0  0.5  1.0000
  Cu  Cu2       1.0  0.0  0.0  0.0  1.0000
  Cl  Cl1       1.0  0.0  0.5  0.5  1.0000
  Cl  Cl2       1.0  0.49999999999999994  0.5  0.0  1.0000
  F   F1        1.0  0.10619016999999999  0.6703085100000001  0.62288642  1.0000
  F   F2        1.0  0.89380983  0.32969149  0.37711358  1.0000
  F   F3        1.0  0.85841402  0.71434669  0.53886824  1.0000
  F   F4        1.0  0.04884588  0.75189191  0.3454342  1.0000
  F   F5        1.0  0.35841402  0.28565331000000005  0.96113176  1.0000
  F   F6        1.0  0.33382672  0.9689486300000001  0.38537136  1.0000
  F   F7        1.0  0.45115412  0.75189191  0.8454342  1.0000
  F   F8        1.0  0.90742426  0.76226334  0.87439895  1.0000
  F   F9        1.0  0.39380982999999997  0.6703085100000001  0.12288642  1.0000
  F   F10       1.0  0.66617328  0.031051370000000047  0.6146286399999998  1.0000
  F   F11       1.0  0.59257574  0.76226334  0.37439895  1.0000
  F   F12       1.0  0.14158598  0.28565331000000005  0.46113175999999995  1.0000
  F   F13       1.0  0.6061901699999999  0.32969149  0.87711358  1.0000
  F   F14       1.0  0.54884588  0.24810809  0.1545658  1.0000
  F   F15       1.0  0.8338267199999999  0.031051369999999995  0.11462864  1.0000
  F   F16       1.0  0.16617328  0.9689486300000001  0.8853713599999999  1.0000
  F   F17       1.0  0.64158598  0.71434669  0.03886824  1.0000
  F   F18       1.0  0.40742426  0.23773666000000007  0.6256010499999999  1.0000
  F   F19       1.0  0.09257573999999999  0.23773666000000002  0.12560104999999996  1.0000
  F   F20       1.0  0.9511541199999999  0.24810809  0.6545657999999999  1.0000
