data_image0
_chemical_formula_structural       Ce4Cl12O12
_chemical_formula_sum              "Ce4 Cl12 O12"
_cell_length_a       6.227132
_cell_length_b       8.677263259220041
_cell_length_c       13.52276780314034
_cell_angle_alpha    89.85921462647826
_cell_angle_beta     89.90147307615993
_cell_angle_gamma    89.98599508325069

_space_group_name_H-M_alt    "P 1"
_space_group_IT_number       1

loop_
  _space_group_symop_operation_xyz
  'x, y, z'

loop_
  _atom_site_type_symbol
  _atom_site_label
  _atom_site_symmetry_multiplicity
  _atom_site_fract_x
  _atom_site_fract_y
  _atom_site_fract_z
  _atom_site_occupancy
  Ce  Ce1       1.0  0.43269099999999994  0.24995399999999998  0.467922  1.0000
  Ce  Ce2       1.0  0.06756  0.249882  0.968103  1.0000
  Ce  Ce3       1.0  0.567807  0.750046  0.532057  1.0000
  Ce  Ce4       1.0  0.9318449999999999  0.7500629999999999  0.031997  1.0000
  Cl  Cl1       1.0  0.683233  0.250279  0.315812  1.0000
  Cl  Cl2       1.0  0.816698  0.25014  0.816355  1.0000
  Cl  Cl3       1.0  0.31651  0.749725  0.6842550000000001  1.0000
  Cl  Cl4       1.0  0.18329099999999998  0.749881  0.183601  1.0000
  Cl  Cl5       1.0  0.322521  0.555576  0.41122000000000003  1.0000
  Cl  Cl6       1.0  0.17752099999999998  0.9449469999999999  0.91055  1.0000
  Cl  Cl7       1.0  0.6777579999999999  0.05528199999999999  0.588933  1.0000
  Cl  Cl8       1.0  0.822182  0.444726  0.08901100000000002  1.0000
  Cl  Cl9       1.0  0.6775549999999999  0.444342  0.5889010000000001  1.0000
  Cl  Cl10      1.0  0.8222809999999999  0.054768  0.089135  1.0000
  Cl  Cl11      1.0  0.32245  0.9447039999999999  0.410979  1.0000
  Cl  Cl12      1.0  0.177857  0.555142  0.911133  1.0000
  O   O1        1.0  0.142191  0.24893999999999997  0.49237900000000007  1.0000
  O   O2        1.0  0.35830399999999996  0.24818399999999996  0.9921860000000001  1.0000
  O   O3        1.0  0.8573689999999999  0.750547  0.507698  1.0000
  O   O4        1.0  0.6421479999999999  0.750575  0.007752  1.0000
  O   O5        1.0  0.27155899999999994  0.179717  0.6898600000000001  1.0000
  O   O6        1.0  0.22584599999999996  0.321616  0.19199500000000003  1.0000
  O   O7        1.0  0.727917  0.679266  0.309323  1.0000
  O   O8        1.0  0.772099  0.820424  0.8097160000000001  1.0000
  O   O9        1.0  0.728216  0.82062  0.309939  1.0000
  O   O10       1.0  0.7724589999999999  0.67913  0.8087070000000001  1.0000
  O   O11       1.0  0.272829  0.32105899999999993  0.690905  1.0000
  O   O12       1.0  0.22930199999999998  0.180467  0.18957600000000002  1.0000
