data_image0
_chemical_formula_structural       Nd16Mg4Ir4
_chemical_formula_sum              "Nd16 Mg4 Ir4"
_cell_length_a       10.01262343535683
_cell_length_b       10.012667239698457
_cell_length_c       10.012603085193804
_cell_angle_alpha    59.99710796592527
_cell_angle_beta     59.996974681893995
_cell_angle_gamma    59.997133714173536

_space_group_name_H-M_alt    "P 1"
_space_group_IT_number       1

loop_
  _space_group_symop_operation_xyz
  'x, y, z'

loop_
  _atom_site_type_symbol
  _atom_site_label
  _atom_site_symmetry_multiplicity
  _atom_site_fract_x
  _atom_site_fract_y
  _atom_site_fract_z
  _atom_site_occupancy
  Nd  Nd1       1.0  0.6542055700000001  0.03737402999999992  0.6542066399999998  1.0000
  Nd  Nd2       1.0  0.8115373500000002  0.18846546999999997  0.8115374  1.0000
  Nd  Nd3       1.0  0.1884680100000001  0.8115363099999999  0.81153508  1.0000
  Nd  Nd4       1.0  0.061177899999999966  0.43882780000000005  0.43883127000000005  1.0000
  Nd  Nd5       1.0  0.061176960000000016  0.06116946999999998  0.43882961  1.0000
  Nd  Nd6       1.0  0.43882984  0.06117234999999997  0.43883134  1.0000
  Nd  Nd7       1.0  0.8115330100000001  0.18846650000000004  0.18846281999999995  1.0000
  Nd  Nd8       1.0  0.43883025  0.06116847  0.06117619  1.0000
  Nd  Nd9       1.0  0.18846930999999995  0.81153236  0.18846280000000007  1.0000
  Nd  Nd10      1.0  0.43883206  0.43882882000000006  0.06117664000000001  1.0000
  Nd  Nd11      1.0  0.81153549  0.81153721  0.18846524000000014  1.0000
  Nd  Nd12      1.0  0.18846559  0.18846468999999996  0.81153268  1.0000
  Nd  Nd13      1.0  0.03737335000000016  0.6542076799999998  0.6542062399999999  1.0000
  Nd  Nd14      1.0  0.6542090699999998  0.6542126400000001  0.6542092600000001  1.0000
  Nd  Nd15      1.0  0.06117295999999999  0.43882844  0.06117288999999996  1.0000
  Nd  Nd16      1.0  0.6542050999999999  0.6542088300000001  0.03737132  1.0000
  Mg  Mg1       1.0  0.4214517100000001  0.42144334999999994  0.7356750699999999  1.0000
  Mg  Mg2       1.0  0.7356775999999999  0.42144058000000006  0.42145449000000007  1.0000
  Mg  Mg3       1.0  0.42144078999999995  0.73569676  0.42144347000000015  1.0000
  Mg  Mg4       1.0  0.42142288000000006  0.42141413999999994  0.42142729000000007  1.0000
  Ir  Ir1       1.0  0.8586507100000002  0.8586571699999999  0.8586589700000001  1.0000
  Ir  Ir2       1.0  0.8586475700000001  0.42403476  0.8586544399999999  1.0000
  Ir  Ir3       1.0  0.85865611  0.85865748  0.4240294400000001  1.0000
  Ir  Ir4       1.0  0.4240308200000001  0.8586566699999999  0.85865141  1.0000
