data_image0
_chemical_formula_structural       K4Mg4Cl12
_chemical_formula_sum              "K4 Mg4 Cl12"
_cell_length_a       6.9558722
_cell_length_b       6.99846994
_cell_length_c       9.91599163
_cell_angle_alpha    90.0
_cell_angle_beta     90.0
_cell_angle_gamma    90.0

_space_group_name_H-M_alt    "P 1"
_space_group_IT_number       1

loop_
  _space_group_symop_operation_xyz
  'x, y, z'

loop_
  _atom_site_type_symbol
  _atom_site_label
  _atom_site_symmetry_multiplicity
  _atom_site_fract_x
  _atom_site_fract_y
  _atom_site_fract_z
  _atom_site_occupancy
  K   K1        1.0  0.006811499999999999  0.96625156  0.75  1.0000
  K   K2        1.0  0.5068114999999999  0.53374844  0.25  1.0000
  K   K3        1.0  0.4931884999999999  0.46625155999999995  0.75  1.0000
  K   K4        1.0  0.9931884999999999  0.03374844  0.25  1.0000
  Mg  Mg1       1.0  0.49999999999999994  0.0  0.5  1.0000
  Mg  Mg2       1.0  0.0  0.49999999999999994  0.5  1.0000
  Mg  Mg3       1.0  0.0  0.49999999999999994  0.0  1.0000
  Mg  Mg4       1.0  0.49999999999999994  0.0  0.0  1.0000
  Cl  Cl1       1.0  0.28738184999999994  0.7130796599999999  0.97396444  1.0000
  Cl  Cl2       1.0  0.78738185  0.78692034  0.026035560000000003  1.0000
  Cl  Cl3       1.0  0.21261815  0.21307965999999998  0.52603556  1.0000
  Cl  Cl4       1.0  0.7126181499999998  0.28692033999999994  0.47396444000000004  1.0000
  Cl  Cl5       1.0  0.05139074  0.49371920999999996  0.25  1.0000
  Cl  Cl6       1.0  0.5513907399999999  0.006280789999999999  0.75  1.0000
  Cl  Cl7       1.0  0.44860926  0.99371921  0.25  1.0000
  Cl  Cl8       1.0  0.9486092599999999  0.50628079  0.75  1.0000
  Cl  Cl9       1.0  0.7126181499999998  0.28692033999999994  0.026035560000000003  1.0000
  Cl  Cl10      1.0  0.21261815  0.21307965999999998  0.97396444  1.0000
  Cl  Cl11      1.0  0.78738185  0.78692034  0.47396444000000004  1.0000
  Cl  Cl12      1.0  0.28738184999999994  0.7130796599999999  0.52603556  1.0000
