data_image0
_chemical_formula_structural       Pr6B2W2O18
_chemical_formula_sum              "Pr6 B2 W2 O18"
_cell_length_a       8.849786438160471
_cell_length_b       8.849786438160471
_cell_length_c       5.630999
_cell_angle_alpha    90.0
_cell_angle_beta     90.0
_cell_angle_gamma    120.0000032756116

_space_group_name_H-M_alt    "P 1"
_space_group_IT_number       1

loop_
  _space_group_symop_operation_xyz
  'x, y, z'

loop_
  _atom_site_type_symbol
  _atom_site_label
  _atom_site_symmetry_multiplicity
  _atom_site_fract_x
  _atom_site_fract_y
  _atom_site_fract_z
  _atom_site_occupancy
  Pr  Pr1       1.0  0.724678  0.642841  0.20157799999999998  1.0000
  Pr  Pr2       1.0  0.27532200000000007  0.35715900000000006  0.701578  1.0000
  Pr  Pr3       1.0  0.642841  0.918163  0.701578  1.0000
  Pr  Pr4       1.0  0.9181630000000001  0.2753220000000001  0.20157799999999998  1.0000
  Pr  Pr5       1.0  0.357159  0.081837  0.20157799999999998  1.0000
  Pr  Pr6       1.0  0.08183700000000002  0.724678  0.701578  1.0000
  B   B1        1.0  0.0  0.0  0.8645849999999999  1.0000
  B   B2        1.0  0.0  0.0  0.364585  1.0000
  W   W1        1.0  0.666667  0.33333299999999993  0.7443579999999999  1.0000
  W   W2        1.0  0.333333  0.666667  0.24435799999999996  1.0000
  O   O1        1.0  0.8724970000000001  0.8256340000000001  0.8567369999999999  1.0000
  O   O2        1.0  0.04686300000000001  0.872497  0.35673699999999997  1.0000
  O   O3        1.0  0.174366  0.046863  0.8567369999999999  1.0000
  O   O4        1.0  0.468387  0.26417  0.541482  1.0000
  O   O5        1.0  0.863066  0.480039  0.9669549999999999  1.0000
  O   O6        1.0  0.73583  0.204217  0.541482  1.0000
  O   O7        1.0  0.12750300000000003  0.17436600000000002  0.35673699999999997  1.0000
  O   O8        1.0  0.204217  0.468387  0.041482  1.0000
  O   O9        1.0  0.4800390000000001  0.6169740000000001  0.46695499999999995  1.0000
  O   O10       1.0  0.795783  0.531613  0.541482  1.0000
  O   O11       1.0  0.616974  0.136934  0.9669549999999999  1.0000
  O   O12       1.0  0.383026  0.863066  0.46695499999999995  1.0000
  O   O13       1.0  0.8256340000000001  0.9531370000000001  0.35673699999999997  1.0000
  O   O14       1.0  0.5199610000000001  0.38302600000000003  0.9669549999999999  1.0000
  O   O15       1.0  0.953137  0.12750300000000003  0.8567369999999999  1.0000
  O   O16       1.0  0.26417000000000007  0.795783  0.041482  1.0000
  O   O17       1.0  0.531613  0.73583  0.041482  1.0000
  O   O18       1.0  0.136934  0.519961  0.46695499999999995  1.0000
