data_image0
_chemical_formula_structural       Cs12K14
_chemical_formula_sum              "Cs12 K14"
_cell_length_a       9.237491877273078
_cell_length_b       9.237491877273078
_cell_length_c       34.39810219
_cell_angle_alpha    90.0
_cell_angle_beta     90.0
_cell_angle_gamma    119.9999912427567

_space_group_name_H-M_alt    "P 1"
_space_group_IT_number       1

loop_
  _space_group_symop_operation_xyz
  'x, y, z'

loop_
  _atom_site_type_symbol
  _atom_site_label
  _atom_site_symmetry_multiplicity
  _atom_site_fract_x
  _atom_site_fract_y
  _atom_site_fract_z
  _atom_site_occupancy
  Cs  Cs1       1.0  0.3333330000000001  0.6666670000000001  0.9770010100000001  1.0000
  Cs  Cs2       1.0  0.666666  0.333332  0.17838445000000003  1.0000
  Cs  Cs3       1.0  0.33333400000000013  0.6666680000000001  0.67838445  1.0000
  Cs  Cs4       1.0  0.33333400000000013  0.6666680000000001  0.8216155500000001  1.0000
  Cs  Cs5       1.0  0.6666670000000001  0.33333300000000005  0.022998990000000004  1.0000
  Cs  Cs6       1.0  0.666666  0.333332  0.32161555000000003  1.0000
  Cs  Cs7       1.0  0.3333330000000001  0.6666670000000001  0.52299899  1.0000
  Cs  Cs8       1.0  0.6666670000000001  0.33333300000000005  0.47700101000000006  1.0000
  Cs  Cs9       1.0  0.0  0.0  0.25  1.0000
  Cs  Cs10      1.0  0.6666670000000001  0.33333300000000005  0.75  1.0000
  Cs  Cs11      1.0  0.0  0.0  0.75  1.0000
  Cs  Cs12      1.0  0.3333330000000001  0.6666670000000001  0.25  1.0000
  K   K1        1.0  0.16715814000000004  0.33431629  0.38554018000000007  1.0000
  K   K2        1.0  0.16715814000000007  0.83284286  0.38554018000000007  1.0000
  K   K3        1.0  0.6656827100000001  0.8328418600000002  0.11445982000000002  1.0000
  K   K4        1.0  0.16715814000000007  0.83284286  0.11445982000000002  1.0000
  K   K5        1.0  0.6656827100000001  0.8328418600000002  0.38554018000000007  1.0000
  K   K6        1.0  0.83284186  0.16715714  0.61445982  1.0000
  K   K7        1.0  0.33431729  0.16715814  0.88554018  1.0000
  K   K8        1.0  0.33431729  0.16715814  0.61445982  1.0000
  K   K9        1.0  0.16715814000000004  0.33431629  0.11445982000000002  1.0000
  K   K10       1.0  0.83284186  0.16715714  0.88554018  1.0000
  K   K11       1.0  0.83284186  0.66568371  0.61445982  1.0000
  K   K12       1.0  0.0  0.0  0.5  1.0000
  K   K13       1.0  0.83284186  0.66568371  0.88554018  1.0000
  K   K14       1.0  0.0  0.0  0.0  1.0000
