data_image0
_chemical_formula_structural       Eu4Tm8Se16
_chemical_formula_sum              "Eu4 Tm8 Se16"
_cell_length_a       4.06400014
_cell_length_b       12.38262514
_cell_length_c       14.66176903
_cell_angle_alpha    90.0
_cell_angle_beta     90.0
_cell_angle_gamma    90.0

_space_group_name_H-M_alt    "P 1"
_space_group_IT_number       1

loop_
  _space_group_symop_operation_xyz
  'x, y, z'

loop_
  _atom_site_type_symbol
  _atom_site_label
  _atom_site_symmetry_multiplicity
  _atom_site_fract_x
  _atom_site_fract_y
  _atom_site_fract_z
  _atom_site_occupancy
  Eu  Eu1       1.0  0.75  0.74112511  0.8345814499999998  1.0000
  Eu  Eu2       1.0  0.25  0.2588748900000001  0.16541855  1.0000
  Eu  Eu3       1.0  0.75  0.24112511  0.6654185499999999  1.0000
  Eu  Eu4       1.0  0.25  0.7588748900000001  0.33458144999999995  1.0000
  Tm  Tm1       1.0  0.75  0.08414732000000001  0.40280026  1.0000
  Tm  Tm2       1.0  0.25  0.91585268  0.59719974  1.0000
  Tm  Tm3       1.0  0.75  0.58414732  0.09719973999999999  1.0000
  Tm  Tm4       1.0  0.25  0.41585268000000003  0.9028002599999999  1.0000
  Tm  Tm5       1.0  0.75  0.061758270000000004  0.8884891199999999  1.0000
  Tm  Tm6       1.0  0.25  0.93824173  0.11151087999999999  1.0000
  Tm  Tm7       1.0  0.75  0.5617582700000001  0.61151088  1.0000
  Tm  Tm8       1.0  0.25  0.43824173  0.38848911999999997  1.0000
  Se  Se1       1.0  0.75  0.29501505  0.3262247999999999  1.0000
  Se  Se2       1.0  0.25  0.7049849500000002  0.6737751999999999  1.0000
  Se  Se3       1.0  0.75  0.7950150500000001  0.1737752  1.0000
  Se  Se4       1.0  0.25  0.20498495000000003  0.8262248  1.0000
  Se  Se5       1.0  0.75  0.3699249600000001  0.032085209999999996  1.0000
  Se  Se6       1.0  0.25  0.63007504  0.9679147899999999  1.0000
  Se  Se7       1.0  0.75  0.8699249600000001  0.46791478999999997  1.0000
  Se  Se8       1.0  0.25  0.13007504  0.53208521  1.0000
  Se  Se9       1.0  0.75  0.9722992800000001  0.7149638299999999  1.0000
  Se  Se10      1.0  0.25  0.02770072  0.28503617  1.0000
  Se  Se11      1.0  0.75  0.47229928  0.7850361699999999  1.0000
  Se  Se12      1.0  0.25  0.52770072  0.21496382999999997  1.0000
  Se  Se13      1.0  0.75  0.09208639  0.07760175  1.0000
  Se  Se14      1.0  0.25  0.9079136100000001  0.9223982499999999  1.0000
  Se  Se15      1.0  0.75  0.5920863900000001  0.4223982499999999  1.0000
  Se  Se16      1.0  0.25  0.40791361000000004  0.5776017499999999  1.0000
