data_image0
_chemical_formula_structural       Tm4Mn4O12
_chemical_formula_sum              "Tm4 Mn4 O12"
_cell_length_a       5.270793
_cell_length_b       5.812419
_cell_length_c       7.453871
_cell_angle_alpha    90.0
_cell_angle_beta     90.0
_cell_angle_gamma    90.0

_space_group_name_H-M_alt    "P 1"
_space_group_IT_number       1

loop_
  _space_group_symop_operation_xyz
  'x, y, z'

loop_
  _atom_site_type_symbol
  _atom_site_label
  _atom_site_symmetry_multiplicity
  _atom_site_fract_x
  _atom_site_fract_y
  _atom_site_fract_z
  _atom_site_occupancy
  Tm  Tm1       1.0  0.479915  0.41630899999999993  0.7500000000000001  1.0000
  Tm  Tm2       1.0  0.520085  0.583691  0.25  1.0000
  Tm  Tm3       1.0  0.020085  0.9163089999999999  0.7500000000000001  1.0000
  Tm  Tm4       1.0  0.9799149999999999  0.08369099999999999  0.25  1.0000
  Mn  Mn1       1.0  0.5  0.0  0.5  1.0000
  Mn  Mn2       1.0  0.5  0.0  0.0  1.0000
  Mn  Mn3       1.0  0.0  0.49999999999999994  0.5  1.0000
  Mn  Mn4       1.0  0.0  0.49999999999999994  0.0  1.0000
  O   O1        1.0  0.6976359999999999  0.326971  0.44000400000000006  1.0000
  O   O2        1.0  0.873729  0.546763  0.7500000000000001  1.0000
  O   O3        1.0  0.8023639999999999  0.8269709999999999  0.05999600000000001  1.0000
  O   O4        1.0  0.126271  0.453237  0.25  1.0000
  O   O5        1.0  0.197636  0.173029  0.559996  1.0000
  O   O6        1.0  0.626271  0.046763  0.7500000000000001  1.0000
  O   O7        1.0  0.6976359999999999  0.326971  0.05999600000000001  1.0000
  O   O8        1.0  0.30236399999999997  0.673029  0.559996  1.0000
  O   O9        1.0  0.373729  0.9532369999999999  0.25  1.0000
  O   O10       1.0  0.8023639999999999  0.8269709999999999  0.44000400000000006  1.0000
  O   O11       1.0  0.197636  0.173029  0.940004  1.0000
  O   O12       1.0  0.30236399999999997  0.673029  0.940004  1.0000
