data_image0
_chemical_formula_structural       Sn4Bi4O14
_chemical_formula_sum              "Sn4 Bi4 O14"
_cell_length_a       7.510916924156689
_cell_length_b       7.510916924156689
_cell_length_c       7.510916924156689
_cell_angle_alpha    60.00000000000001
_cell_angle_beta     60.00000000000001
_cell_angle_gamma    60.00000000000001

_space_group_name_H-M_alt    "P 1"
_space_group_IT_number       1

loop_
  _space_group_symop_operation_xyz
  'x, y, z'

loop_
  _atom_site_type_symbol
  _atom_site_label
  _atom_site_symmetry_multiplicity
  _atom_site_fract_x
  _atom_site_fract_y
  _atom_site_fract_z
  _atom_site_occupancy
  Sn  Sn1       1.0  0.6250000000000001  0.6250000000000001  0.12499999999999999  1.0000
  Sn  Sn2       1.0  0.6249999999999999  0.12499999999999986  0.6250000000000001  1.0000
  Sn  Sn3       1.0  0.12499999999999978  0.6249999999999998  0.6250000000000002  1.0000
  Sn  Sn4       1.0  0.625  0.625  0.625  1.0000
  Bi  Bi1       1.0  0.12499999999999994  0.12499999999999994  0.625  1.0000
  Bi  Bi2       1.0  0.12499999999999997  0.625  0.12500000000000003  1.0000
  Bi  Bi3       1.0  0.6250000000000001  0.125  0.12499999999999999  1.0000
  Bi  Bi4       1.0  0.125  0.125  0.12499999999999999  1.0000
  O   O1        1.0  0.0  0.0  0.0  1.0000
  O   O2        1.0  0.25  0.25  0.24999999999999997  1.0000
  O   O3        1.0  0.9564809599999997  0.5435190399999995  0.9564809600000004  1.0000
  O   O4        1.0  0.7064809599999999  0.29351903999999995  0.70648096  1.0000
  O   O5        1.0  0.95648096  0.95648096  0.5435190399999998  1.0000
  O   O6        1.0  0.5435190399999995  0.9564809599999997  0.9564809600000004  1.0000
  O   O7        1.0  0.95648096  0.54351904  0.54351904  1.0000
  O   O8        1.0  0.5435190399999998  0.5435190399999998  0.95648096  1.0000
  O   O9        1.0  0.54351904  0.95648096  0.54351904  1.0000
  O   O10       1.0  0.29351903999999995  0.7064809599999999  0.70648096  1.0000
  O   O11       1.0  0.7064809599999999  0.29351904  0.29351904  1.0000
  O   O12       1.0  0.29351904  0.7064809599999999  0.29351904  1.0000
  O   O13       1.0  0.7064809600000002  0.7064809600000002  0.29351903999999984  1.0000
  O   O14       1.0  0.29351903999999995  0.29351903999999995  0.70648096  1.0000
