data_image0
_chemical_formula_structural       H16S8
_chemical_formula_sum              "H16 S8"
_cell_length_a       8.83753075774048
_cell_length_b       8.83753075774048
_cell_length_c       8.83753075774048
_cell_angle_alpha    118.690318510586
_cell_angle_beta     118.69031851058598
_cell_angle_gamma    92.28380992055806

_space_group_name_H-M_alt    "P 1"
_space_group_IT_number       1

loop_
  _space_group_symop_operation_xyz
  'x, y, z'

loop_
  _atom_site_type_symbol
  _atom_site_label
  _atom_site_symmetry_multiplicity
  _atom_site_fract_x
  _atom_site_fract_y
  _atom_site_fract_z
  _atom_site_occupancy
  H   H1        1.0  0.12619200000000003  0.8312130000000001  0.8596500000000001  1.0000
  H   H2        1.0  0.6261919999999999  0.7665420000000001  0.294979  1.0000
  H   H3        1.0  0.7784359999999999  0.9834580000000002  0.35965  1.0000
  H   H4        1.0  0.278436  0.9187870000000001  0.7949790000000001  1.0000
  H   H5        1.0  0.9715639999999999  0.2665420000000001  0.14035000000000009  1.0000
  H   H6        1.0  0.471564  0.33121300000000004  0.705021  1.0000
  H   H7        1.0  0.623808  0.418787  0.64035  1.0000
  H   H8        1.0  0.12380799999999996  0.48345800000000005  0.20502099999999998  1.0000
  H   H9        1.0  0.16878699999999996  0.028436000000000065  0.29497900000000005  1.0000
  H   H10       1.0  0.2334579999999999  0.5284360000000001  0.8596500000000001  1.0000
  H   H11       1.0  0.016542000000000025  0.376192  0.794979  1.0000
  H   H12       1.0  0.08121299999999985  0.876192  0.35964999999999997  1.0000
  H   H13       1.0  0.733458  0.873808  0.705021  1.0000
  H   H14       1.0  0.6687869999999999  0.3738080000000001  0.14035  1.0000
  H   H15       1.0  0.5812129999999999  0.22156400000000004  0.20502100000000004  1.0000
  H   H16       1.0  0.5165420000000001  0.721564  0.64035  1.0000
  S   S1        1.0  0.12499999999999983  0.8490570000000001  0.224057  1.0000
  S   S2        1.0  0.6249999999999999  0.40094300000000005  0.275943  1.0000
  S   S3        1.0  0.125  0.3490570000000002  0.7240570000000001  1.0000
  S   S4        1.0  0.6249999999999999  0.900943  0.775943  1.0000
  S   S5        1.0  0.15094299999999997  0.375  0.275943  1.0000
  S   S6        1.0  0.599057  0.8750000000000001  0.224057  1.0000
  S   S7        1.0  0.650943  0.37500000000000006  0.775943  1.0000
  S   S8        1.0  0.09905699999999996  0.8750000000000002  0.7240570000000001  1.0000
