data_image0
_chemical_formula_structural       Sr2Al8O14
_chemical_formula_sum              "Sr2 Al8 O14"
_cell_length_a       7.935917494904883
_cell_length_b       7.935917494904883
_cell_length_c       5.547058426577397
_cell_angle_alpha    76.76847642721718
_cell_angle_beta     76.76847642721718
_cell_angle_gamma    69.38481999174836

_space_group_name_H-M_alt    "P 1"
_space_group_IT_number       1

loop_
  _space_group_symop_operation_xyz
  'x, y, z'

loop_
  _atom_site_type_symbol
  _atom_site_label
  _atom_site_symmetry_multiplicity
  _atom_site_fract_x
  _atom_site_fract_y
  _atom_site_fract_z
  _atom_site_occupancy
  Sr  Sr1       1.0  0.81046585  0.18953414999999998  0.25  1.0000
  Sr  Sr2       1.0  0.18953415000000007  0.8104658499999999  0.75  1.0000
  Al  Al1       1.0  0.56172104  0.6814835599999999  0.23461239  1.0000
  Al  Al2       1.0  0.31851644000000007  0.43827895999999994  0.26538760999999994  1.0000
  Al  Al3       1.0  0.43827895999999994  0.31851644  0.7653876099999999  1.0000
  Al  Al4       1.0  0.68148356  0.5617210400000002  0.73461239  1.0000
  Al  Al5       1.0  0.25521433000000004  0.08194657000000001  0.20534378999999997  1.0000
  Al  Al6       1.0  0.9180534300000002  0.74478567  0.2946562099999999  1.0000
  Al  Al7       1.0  0.7447856699999998  0.91805343  0.7946562099999999  1.0000
  Al  Al8       1.0  0.08194657000000002  0.25521433  0.70534379  1.0000
  O   O1        1.0  0.63572354  0.74500017  0.90315211  1.0000
  O   O2        1.0  0.25499983  0.36427645999999997  0.59684789  1.0000
  O   O3        1.0  0.36427646  0.2549998300000001  0.09684789  1.0000
  O   O4        1.0  0.74500017  0.63572354  0.40315211  1.0000
  O   O5        1.0  0.38416069000000014  0.8663160199999997  0.32867858  1.0000
  O   O6        1.0  0.1336839800000001  0.61583931  0.17132141999999997  1.0000
  O   O7        1.0  0.6158393100000001  0.13368397999999998  0.67132142  1.0000
  O   O8        1.0  0.8663160199999999  0.3841606900000001  0.8286785799999999  1.0000
  O   O9        1.0  0.15686971000000002  0.08131382000000001  0.9544100799999999  1.0000
  O   O10       1.0  0.91868618  0.8431302900000001  0.5455899199999998  1.0000
  O   O11       1.0  0.47523222000000004  0.52476778  0.75  1.0000
  O   O12       1.0  0.52476778  0.47523222  0.25  1.0000
  O   O13       1.0  0.08131381999999997  0.15686971  0.45441008  1.0000
  O   O14       1.0  0.8431302900000002  0.9186861799999999  0.04558992  1.0000
