data_image0
_chemical_formula_structural       Nb2Ag14S12
_chemical_formula_sum              "Nb2 Ag14 S12"
_cell_length_a       7.453068
_cell_length_b       7.736051
_cell_length_c       13.353818705751436
_cell_angle_alpha    55.23089818095924
_cell_angle_beta     90.0
_cell_angle_gamma    90.0

_space_group_name_H-M_alt    "P 1"
_space_group_IT_number       1

loop_
  _space_group_symop_operation_xyz
  'x, y, z'

loop_
  _atom_site_type_symbol
  _atom_site_label
  _atom_site_symmetry_multiplicity
  _atom_site_fract_x
  _atom_site_fract_y
  _atom_site_fract_z
  _atom_site_occupancy
  Nb  Nb1       1.0  0.24418799999999996  0.9933489999999999  0.503368  1.0000
  Nb  Nb2       1.0  0.755812  0.9933489999999999  0.0033680000000000003  1.0000
  Ag  Ag1       1.0  0.879362  0.8942269999999999  0.41008100000000003  1.0000
  Ag  Ag2       1.0  0.12063799999999998  0.894227  0.910081  1.0000
  Ag  Ag3       1.0  0.9570899999999999  0.519542  0.151331  1.0000
  Ag  Ag4       1.0  0.04291  0.5195419999999998  0.651331  1.0000
  Ag  Ag5       1.0  0.600754  0.08461399999999997  0.194813  1.0000
  Ag  Ag6       1.0  0.399246  0.08461399999999997  0.694813  1.0000
  Ag  Ag7       1.0  0.783462  0.688886  0.281729  1.0000
  Ag  Ag8       1.0  0.21653799999999998  0.6888860000000001  0.781729  1.0000
  Ag  Ag9       1.0  0.6805789999999999  0.3023299999999999  0.732727  1.0000
  Ag  Ag10      1.0  0.31942099999999995  0.30233  0.23272699999999996  1.0000
  Ag  Ag11      1.0  0.48677699999999996  0.692269  0.990088  1.0000
  Ag  Ag12      1.0  0.513223  0.692269  0.490088  1.0000
  Ag  Ag13      1.0  0.585006  0.281148  0.454584  1.0000
  Ag  Ag14      1.0  0.414994  0.28114800000000006  0.954584  1.0000
  S   S1        1.0  0.214506  0.489298  0.012811  1.0000
  S   S2        1.0  0.785494  0.489298  0.512811  1.0000
  S   S3        1.0  0.267657  0.2517479999999999  0.7840630000000001  1.0000
  S   S4        1.0  0.732343  0.2517480000000001  0.284063  1.0000
  S   S5        1.0  0.498401  0.851191  0.631979  1.0000
  S   S6        1.0  0.501599  0.851191  0.131979  1.0000
  S   S7        1.0  0.977379  0.880924  0.614498  1.0000
  S   S8        1.0  0.022621  0.8809239999999999  0.114498  1.0000
  S   S9        1.0  0.245147  0.8922129999999999  0.367358  1.0000
  S   S10       1.0  0.754853  0.8922129999999998  0.8673580000000001  1.0000
  S   S11       1.0  0.242353  0.355261  0.3985679999999999  1.0000
  S   S12       1.0  0.7576469999999998  0.355261  0.898568  1.0000
