data_image0
_chemical_formula_structural       B6Pb6O15
_chemical_formula_sum              "B6 Pb6 O15"
_cell_length_a       6.995718771320404
_cell_length_b       7.233323069455086
_cell_length_c       7.836091180373991
_cell_angle_alpha    76.22989366712031
_cell_angle_beta     76.50471290757355
_cell_angle_gamma    73.86154575866777

_space_group_name_H-M_alt    "P 1"
_space_group_IT_number       1

loop_
  _space_group_symop_operation_xyz
  'x, y, z'

loop_
  _atom_site_type_symbol
  _atom_site_label
  _atom_site_symmetry_multiplicity
  _atom_site_fract_x
  _atom_site_fract_y
  _atom_site_fract_z
  _atom_site_occupancy
  B   B1        1.0  0.21630265  0.09517703999999998  0.49315359  1.0000
  B   B2        1.0  0.21007086  0.10184931  0.16834044  1.0000
  B   B3        1.0  0.8893392600000001  0.2840064  0.01805365  1.0000
  B   B4        1.0  0.7295612500000002  0.5792163399999999  0.8085063200000001  1.0000
  B   B5        1.0  0.8761283000000001  0.24923896000000004  0.7091922300000001  1.0000
  B   B6        1.0  0.17612689  0.7962999  0.40582107  1.0000
  Pb  Pb1       1.0  0.6854689500000001  0.9377311  0.011011439999999999  1.0000
  Pb  Pb2       1.0  0.25121731999999986  0.8903176700000002  0.8668612500000001  1.0000
  Pb  Pb3       1.0  0.43826209000000005  0.42695714  0.18243472000000002  1.0000
  Pb  Pb4       1.0  0.88080489  0.49807689000000005  0.33837641  1.0000
  Pb  Pb5       1.0  0.70431685  0.024404139999999994  0.49519249  1.0000
  Pb  Pb6       1.0  0.35152507999999993  0.40578768000000004  0.67669144  1.0000
  O   O1        1.0  0.34927503  0.10878127  0.6071603  1.0000
  O   O2        1.0  0.73012859  0.1291682  0.74132674  1.0000
  O   O3        1.0  0.7200923100000001  0.19644564999999997  0.11067726000000001  1.0000
  O   O4        1.0  0.61610588  0.7659994400000002  0.78059469  1.0000
  O   O5        1.0  0.8038370899999998  0.5010818000000001  0.9661599100000001  1.0000
  O   O6        1.0  0.9915891600000001  0.20482786  0.85321294  1.0000
  O   O7        1.0  0.199737  0.8880061600000001  0.5340423200000001  1.0000
  O   O8        1.0  0.35711139  0.08506467  0.0029620000000000002  1.0000
  O   O9        1.0  0.01217547999999997  0.22617069000000004  0.53345154  1.0000
  O   O10       1.0  0.30175489999999994  0.14742697000000002  0.30342710000000006  1.0000
  O   O11       1.0  0.1561162399999999  0.9075260200000003  0.23807581000000003  1.0000
  O   O12       1.0  0.17268751  0.6035464200000001  0.44547959  1.0000
  O   O13       1.0  0.03189076999999997  0.26252644  0.13681880000000002  1.0000
  O   O14       1.0  0.58942435  0.37151829  0.41822201000000003  1.0000
  O   O15       1.0  0.7663499000000001  0.46154653999999995  0.6828549100000001  1.0000
