data_image0
_chemical_formula_structural       Hg12Se8I8
_chemical_formula_sum              "Hg12 Se8 I8"
_cell_length_a       9.76019594
_cell_length_b       10.906679400561837
_cell_length_c       11.09343052784069
_cell_angle_alpha    113.27373976659483
_cell_angle_beta     90.0
_cell_angle_gamma    116.57963361148309

_space_group_name_H-M_alt    "P 1"
_space_group_IT_number       1

loop_
  _space_group_symop_operation_xyz
  'x, y, z'

loop_
  _atom_site_type_symbol
  _atom_site_label
  _atom_site_symmetry_multiplicity
  _atom_site_fract_x
  _atom_site_fract_y
  _atom_site_fract_z
  _atom_site_occupancy
  Hg  Hg1       1.0  0.6668928600000001  0.8474632800000002  0.6958233700000002  1.0000
  Hg  Hg2       1.0  0.07883297  0.15766594  0.73989971  1.0000
  Hg  Hg3       1.0  0.14420049  0.75636857  0.99820638  1.0000
  Hg  Hg4       1.0  0.78722938  0.57445876  0.7334250400000001  1.0000
  Hg  Hg5       1.0  0.61216709  0.75636857  0.99820638  1.0000
  Hg  Hg6       1.0  0.33310714  0.15253672  0.30417663  1.0000
  Hg  Hg7       1.0  0.38783291  0.24363143  0.0017936199999999778  1.0000
  Hg  Hg8       1.0  0.1805704200000001  0.8474632800000002  0.6958233700000002  1.0000
  Hg  Hg9       1.0  0.21277062  0.42554124  0.26657496  1.0000
  Hg  Hg10      1.0  0.9211670300000001  0.84233406  0.26010129  1.0000
  Hg  Hg11      1.0  0.85579951  0.24363143  0.0017936199999999778  1.0000
  Hg  Hg12      1.0  0.81942958  0.15253672  0.30417663  1.0000
  Se  Se1       1.0  0.9355194700000001  0.38459436  0.25477719  1.0000
  Se  Se2       1.0  0.5509251  0.61540564  0.74522281  1.0000
  Se  Se3       1.0  0.06448052999999998  0.61540564  0.74522281  1.0000
  Se  Se4       1.0  0.32195328  0.13056336  0.7487213900000002  1.0000
  Se  Se5       1.0  0.4490749  0.38459436  0.25477719  1.0000
  Se  Se6       1.0  0.80861008  0.13056336  0.7487213900000002  1.0000
  Se  Se7       1.0  0.67804672  0.86943664  0.25127861000000007  1.0000
  Se  Se8       1.0  0.19138992000000002  0.86943664  0.25127861000000007  1.0000
  I   I1        1.0  0.12580841  0.25161882  0.500441  1.0000
  I   I2        1.0  0.62136173  0.24272146  0.50228181  1.0000
  I   I3        1.0  0.25096941  0.50193882  0.0015794500000000115  1.0000
  I   I4        1.0  0.74903059  0.49806118  0.9984205499999999  1.0000
  I   I5        1.0  0.37863827  0.75727854  0.49771819  1.0000
  I   I6        1.0  0.5  0.0  0.0  1.0000
  I   I7        1.0  0.0  0.0  0.0  1.0000
  I   I8        1.0  0.87419159  0.74838118  0.49955900000000003  1.0000
