data_image0
_chemical_formula_structural       La6B6N12
_chemical_formula_sum              "La6 B6 N12"
_cell_length_a       6.6167464417465425
_cell_length_b       6.91272575945326
_cell_length_c       7.81157719630438
_cell_angle_alpha    105.94932836133582
_cell_angle_beta     90.60369086008049
_cell_angle_gamma    115.86423192905644

_space_group_name_H-M_alt    "P 1"
_space_group_IT_number       1

loop_
  _space_group_symop_operation_xyz
  'x, y, z'

loop_
  _atom_site_type_symbol
  _atom_site_label
  _atom_site_symmetry_multiplicity
  _atom_site_fract_x
  _atom_site_fract_y
  _atom_site_fract_z
  _atom_site_occupancy
  La  La1       1.0  0.5389233400000001  0.7852390700000003  0.06233155  1.0000
  La  La2       1.0  0.46107666  0.21476092999999996  0.9376684499999999  1.0000
  La  La3       1.0  0.46780399  0.21779053  0.42186463  1.0000
  La  La4       1.0  0.5321960100000002  0.7822094700000001  0.5781353699999999  1.0000
  La  La5       1.0  0.9425793899999999  0.6653950199999998  0.29848451  1.0000
  La  La6       1.0  0.05742060999999996  0.33460497999999994  0.7015154899999999  1.0000
  B   B1        1.0  0.89884815  0.20963618  0.32713298  1.0000
  B   B2        1.0  0.10132284999999994  0.7782452299999999  0.9855298499999999  1.0000
  B   B3        1.0  0.89867715  0.22175477  0.01447015  1.0000
  B   B4        1.0  0.10115184999999997  0.7903638199999999  0.6728670199999999  1.0000
  B   B5        1.0  0.26567685  0.419115  0.22559615  1.0000
  B   B6        1.0  0.73432315  0.580885  0.7744038499999999  1.0000
  N   N1        1.0  0.14649473  0.35950205  0.04374566999999999  1.0000
  N   N2        1.0  0.85350527  0.64049795  0.95625433  1.0000
  N   N3        1.0  0.22742636999999993  0.7835941299999999  0.8283594499999999  1.0000
  N   N4        1.0  0.76707446  0.05327388999999996  0.4206828899999999  1.0000
  N   N5        1.0  0.2329255400000001  0.9467261100000002  0.57931711  1.0000
  N   N6        1.0  0.77257363  0.21640587000000003  0.17164055  1.0000
  N   N7        1.0  0.4877054  0.48306807999999996  0.7485281499999998  1.0000
  N   N8        1.0  0.5122946  0.51693192  0.25147185  1.0000
  N   N9        1.0  0.76205898  0.09022481999999994  0.84026829  1.0000
  N   N10       1.0  0.23794102  0.90977518  0.15973170999999997  1.0000
  N   N11       1.0  0.14436487  0.36895635  0.37873661999999997  1.0000
  N   N12       1.0  0.8556351300000001  0.63104365  0.6212633799999999  1.0000
