data_image0
_chemical_formula_structural       Ca12Al4As12
_chemical_formula_sum              "Ca12 Al4 As12"
_cell_length_a       4.19991855
_cell_length_b       12.24448974
_cell_length_c       13.43329894
_cell_angle_alpha    90.0
_cell_angle_beta     90.0
_cell_angle_gamma    90.0

_space_group_name_H-M_alt    "P 1"
_space_group_IT_number       1

loop_
  _space_group_symop_operation_xyz
  'x, y, z'

loop_
  _atom_site_type_symbol
  _atom_site_label
  _atom_site_symmetry_multiplicity
  _atom_site_fract_x
  _atom_site_fract_y
  _atom_site_fract_z
  _atom_site_occupancy
  Ca  Ca1       1.0  0.25  0.85191626  0.49983861000000007  1.0000
  Ca  Ca2       1.0  0.25  0.3519162599999999  0.00016139000000000003  1.0000
  Ca  Ca3       1.0  0.75  0.14808374  0.50016139  1.0000
  Ca  Ca4       1.0  0.75  0.22838357999999997  0.21257667  1.0000
  Ca  Ca5       1.0  0.75  0.43328240999999995  0.39334369  1.0000
  Ca  Ca6       1.0  0.25  0.56671759  0.60665631  1.0000
  Ca  Ca7       1.0  0.75  0.93328241  0.10665631000000002  1.0000
  Ca  Ca8       1.0  0.25  0.06671759  0.8933436900000001  1.0000
  Ca  Ca9       1.0  0.25  0.27161642  0.71257667  1.0000
  Ca  Ca10      1.0  0.75  0.7283835799999999  0.28742333  1.0000
  Ca  Ca11      1.0  0.25  0.7716164199999999  0.7874233300000001  1.0000
  Ca  Ca12      1.0  0.75  0.64808374  0.99983861  1.0000
  Al  Al1       1.0  0.75  0.93917999  0.70238205  1.0000
  Al  Al2       1.0  0.25  0.06082001  0.29761795  1.0000
  Al  Al3       1.0  0.25  0.56082001  0.20238205  1.0000
  Al  Al4       1.0  0.75  0.43917999  0.7976179500000001  1.0000
  As  As1       1.0  0.75  0.45959921  0.14915222  1.0000
  As  As2       1.0  0.25  0.54040079  0.8508477800000002  1.0000
  As  As3       1.0  0.75  0.95959921  0.35084778  1.0000
  As  As4       1.0  0.25  0.04040078999999999  0.64915222  1.0000
  As  As5       1.0  0.75  0.39686144  0.61542428  1.0000
  As  As6       1.0  0.25  0.60313856  0.38457572  1.0000
  As  As7       1.0  0.75  0.89686144  0.88457572  1.0000
  As  As8       1.0  0.25  0.10313855999999999  0.11542428000000002  1.0000
  As  As9       1.0  0.75  0.25385541  0.8749317400000001  1.0000
  As  As10      1.0  0.25  0.74614459  0.12506826  1.0000
  As  As11      1.0  0.75  0.7538554099999999  0.62506826  1.0000
  As  As12      1.0  0.25  0.24614458999999997  0.37493174  1.0000
