data_image0
_chemical_formula_structural       PrP3H6O12
_chemical_formula_sum              "Pr1 P3 H6 O12"
_cell_length_a       6.874289330578543
_cell_length_b       6.874289330578543
_cell_length_c       6.125151
_cell_angle_alpha    90.0
_cell_angle_beta     90.0
_cell_angle_gamma    119.99999355736051

_space_group_name_H-M_alt    "P 1"
_space_group_IT_number       1

loop_
  _space_group_symop_operation_xyz
  'x, y, z'

loop_
  _atom_site_type_symbol
  _atom_site_label
  _atom_site_symmetry_multiplicity
  _atom_site_fract_x
  _atom_site_fract_y
  _atom_site_fract_z
  _atom_site_occupancy
  Pr  Pr1       1.0  0.0  0.0  0.0  1.0000
  P   P1        1.0  0.7294819999999999  0.11801100000000005  0.5  1.0000
  P   P2        1.0  0.881989  0.61147  0.5  1.0000
  P   P3        1.0  0.38853  0.270518  0.5  1.0000
  H   H1        1.0  0.5105979999999999  0.56759  0.125902  1.0000
  H   H2        1.0  0.43240999999999996  0.943008  0.125902  1.0000
  H   H3        1.0  0.056991999999999945  0.48940199999999995  0.8740980000000002  1.0000
  H   H4        1.0  0.056991999999999945  0.48940199999999995  0.125902  1.0000
  H   H5        1.0  0.43240999999999996  0.943008  0.8740980000000002  1.0000
  H   H6        1.0  0.5105979999999999  0.56759  0.8740980000000002  1.0000
  O   O1        1.0  0.484772  0.098732  0.5  1.0000
  O   O2        1.0  0.5955789999999999  0.6568949999999999  0.0  1.0000
  O   O3        1.0  0.06131599999999996  0.4044209999999999  0.0  1.0000
  O   O4        1.0  0.978419  0.7289720000000001  0.288137  1.0000
  O   O5        1.0  0.9012679999999998  0.38604  0.5  1.0000
  O   O6        1.0  0.978419  0.7289720000000001  0.711863  1.0000
  O   O7        1.0  0.271028  0.24944700000000003  0.288137  1.0000
  O   O8        1.0  0.61396  0.515228  0.5  1.0000
  O   O9        1.0  0.7505530000000001  0.021581000000000076  0.288137  1.0000
  O   O10       1.0  0.7505530000000001  0.021581000000000076  0.711863  1.0000
  O   O11       1.0  0.343105  0.938684  0.0  1.0000
  O   O12       1.0  0.271028  0.24944700000000003  0.711863  1.0000
