data_image0
_chemical_formula_structural       Sn8B6Ir14
_chemical_formula_sum              "Sn8 B6 Ir14"
_cell_length_a       9.315339358009988
_cell_length_b       9.315343938502096
_cell_length_c       5.662772880000001
_cell_angle_alpha    90.00000114345261
_cell_angle_beta     89.9999994061137
_cell_angle_gamma    120.0000418906229

_space_group_name_H-M_alt    "P 1"
_space_group_IT_number       1

loop_
  _space_group_symop_operation_xyz
  'x, y, z'

loop_
  _atom_site_type_symbol
  _atom_site_label
  _atom_site_symmetry_multiplicity
  _atom_site_fract_x
  _atom_site_fract_y
  _atom_site_fract_z
  _atom_site_occupancy
  Sn  Sn1       1.0  0.50166555  0.09155403999999993  0.7500000000000001  1.0000
  Sn  Sn2       1.0  0.09154567000000004  0.58988153  0.25000001000000005  1.0000
  Sn  Sn3       1.0  0.9084507499999999  0.41007269999999985  0.74999999  1.0000
  Sn  Sn4       1.0  0.5898973299999999  0.4983582899999999  0.7499999800000001  1.0000
  Sn  Sn5       1.0  0.49837949  0.90845924  0.25000001000000005  1.0000
  Sn  Sn6       1.0  0.3333376900000001  0.66665852  0.7499999700000001  1.0000
  Sn  Sn7       1.0  0.41008873  0.50164443  0.25000003  1.0000
  Sn  Sn8       1.0  0.6666711  0.33332501  0.25000000000000006  1.0000
  B   B1        1.0  0.8269881399999999  0.7898238099999999  0.25000002000000004  1.0000
  B   B2        1.0  0.96283137  0.1730122499999999  0.25000004  1.0000
  B   B3        1.0  0.21017560000000002  0.03716867999999999  0.25000002  1.0000
  B   B4        1.0  0.78982067  0.96283401  0.7499999600000001  1.0000
  B   B5        1.0  0.03716548000000002  0.8269914  0.7499999800000001  1.0000
  B   B6        1.0  0.17300905999999996  0.21017923999999996  0.7499999600000001  1.0000
  Ir  Ir1       1.0  0.12445438999999994  0.35586137999999995  0.9990108600000001  1.0000
  Ir  Ir2       1.0  0.7685985699999999  0.12446079999999984  0.49901048  1.0000
  Ir  Ir3       1.0  0.7685985999999999  0.12446078999999989  0.00098952  1.0000
  Ir  Ir4       1.0  0.64413605  0.76860189  0.50098975  1.0000
  Ir  Ir5       1.0  0.12445438999999994  0.35586140999999993  0.5009891100000001  1.0000
  Ir  Ir6       1.0  0.8755354899999999  0.6441350999999998  0.0009893600000000001  1.0000
  Ir  Ir7       1.0  0.35586208999999996  0.23140939999999993  0.00098871  1.0000
  Ir  Ir8       1.0  0.23140616000000008  0.8755423200000001  0.5009887800000001  1.0000
  Ir  Ir9       1.0  0.87553549  0.64413506  0.49901061  1.0000
  Ir  Ir10      1.0  0.35586211999999995  0.23140941999999995  0.4990112700000001  1.0000
  Ir  Ir11      1.0  0.23140612999999985  0.8755423199999999  0.9990112600000001  1.0000
  Ir  Ir12      1.0  0.9999939  7.540000000000001e-06  0.50000001  1.0000
  Ir  Ir13      1.0  0.99999388  7.530000000000001e-06  1.0000000000000002e-08  1.0000
  Ir  Ir14      1.0  0.6441360699999998  0.7686018999999998  0.9990102800000001  1.0000
