data_image0
_chemical_formula_structural       Y4Mg16Cu4
_chemical_formula_sum              "Y4 Mg16 Cu4"
_cell_length_a       11.968541817024244
_cell_length_b       11.968541817024244
_cell_length_c       4.046534
_cell_angle_alpha    90.0
_cell_angle_beta     90.0
_cell_angle_gamma    112.8175507414461

_space_group_name_H-M_alt    "P 1"
_space_group_IT_number       1

loop_
  _space_group_symop_operation_xyz
  'x, y, z'

loop_
  _atom_site_type_symbol
  _atom_site_label
  _atom_site_symmetry_multiplicity
  _atom_site_fract_x
  _atom_site_fract_y
  _atom_site_fract_z
  _atom_site_occupancy
  Y   Y1        1.0  0.6986359999999999  0.698636  0.0  1.0000
  Y   Y2        1.0  0.301364  0.301364  0.0  1.0000
  Y   Y3        1.0  0.632649  0.367351  0.0  1.0000
  Y   Y4        1.0  0.3673509999999999  0.632649  0.0  1.0000
  Mg  Mg1       1.0  0.8352989999999999  0.16470100000000001  0.0  1.0000
  Mg  Mg2       1.0  0.4131989999999999  0.07695500000000002  0.0  1.0000
  Mg  Mg3       1.0  0.210761  0.050157  0.5  1.0000
  Mg  Mg4       1.0  0.37514199999999975  0.8648629999999998  0.5  1.0000
  Mg  Mg5       1.0  0.050156999999999966  0.21076099999999998  0.5  1.0000
  Mg  Mg6       1.0  0.5868009999999999  0.9230449999999999  0.0  1.0000
  Mg  Mg7       1.0  0.9498429999999999  0.789239  0.5  1.0000
  Mg  Mg8       1.0  0.16470099999999988  0.8352989999999999  0.0  1.0000
  Mg  Mg9       1.0  0.624858  0.13513700000000003  0.5  1.0000
  Mg  Mg10      1.0  0.13513699999999987  0.6248579999999999  0.5  1.0000
  Mg  Mg11      1.0  0.07695499999999998  0.413199  0.0  1.0000
  Mg  Mg12      1.0  0.8648629999999999  0.375142  0.5  1.0000
  Mg  Mg13      1.0  0.7892389999999999  0.949843  0.5  1.0000
  Mg  Mg14      1.0  0.923045  0.586801  0.0  1.0000
  Mg  Mg15      1.0  0.0  0.0  0.0  1.0000
  Mg  Mg16      1.0  0.49999999999999994  0.5  0.5  1.0000
  Cu  Cu1       1.0  0.764757  0.553933  0.5  1.0000
  Cu  Cu2       1.0  0.5539329999999999  0.764757  0.5  1.0000
  Cu  Cu3       1.0  0.446067  0.23524300000000004  0.5  1.0000
  Cu  Cu4       1.0  0.235243  0.446067  0.5  1.0000
