data_image0
_chemical_formula_structural       Zn4Si2H4O10
_chemical_formula_sum              "Zn4 Si2 H4 O10"
_cell_length_a       7.376996865754926
_cell_length_b       7.376996865754926
_cell_length_c       7.376996865754926
_cell_angle_alpha    138.95339175073815
_cell_angle_beta     109.49138800275637
_cell_angle_gamma    84.96059700559101

_space_group_name_H-M_alt    "P 1"
_space_group_IT_number       1

loop_
  _space_group_symop_operation_xyz
  'x, y, z'

loop_
  _atom_site_type_symbol
  _atom_site_label
  _atom_site_symmetry_multiplicity
  _atom_site_fract_x
  _atom_site_fract_y
  _atom_site_fract_z
  _atom_site_occupancy
  Zn  Zn1       1.0  0.8662180000000002  0.659318  0.20002000000000003  1.0000
  Zn  Zn2       1.0  0.1337819999999999  0.33380199999999993  0.7930999999999999  1.0000
  Zn  Zn3       1.0  0.45929700000000007  0.6593179999999998  0.7930999999999999  1.0000
  Zn  Zn4       1.0  0.5407030000000002  0.333802  0.20002  1.0000
  Si  Si1       1.0  0.645984  0.13765400000000003  0.49167  1.0000
  Si  Si2       1.0  0.3540160000000001  0.8456859999999999  0.49167  1.0000
  H   H1        1.0  0.876036  0.3188839999999999  0.19491999999999995  1.0000
  H   H2        1.0  0.12396399999999996  0.318884  0.442849  1.0000
  H   H3        1.0  0.9107350000000001  0.8528629999999999  0.763598  1.0000
  H   H4        1.0  0.08926499999999993  0.852863  0.942128  1.0000
  O   O1        1.0  0.8643520000000001  0.06792100000000008  0.523516  1.0000
  O   O2        1.0  0.1356479999999998  0.6591650000000001  0.20356899999999992  1.0000
  O   O3        1.0  0.544404  0.06792100000000002  0.20356899999999997  1.0000
  O   O4        1.0  0.455596  0.6591650000000001  0.523516  1.0000
  O   O5        1.0  0.666465  0.4718109999999999  0.8053459999999999  1.0000
  O   O6        1.0  0.3335350000000001  0.1388819999999999  0.8053459999999999  1.0000
  O   O7        1.0  0.8036850000000001  0.46599  0.269674  1.0000
  O   O8        1.0  0.1963150000000001  0.46598999999999996  0.662305  1.0000
  O   O9        1.0  0.5000000000000001  0.9107569999999999  0.410757  1.0000
  O   O10       1.0  5.5038465911449467e-17  0.973016  0.973016  1.0000
