data_image0
_chemical_formula_structural       Ca10Si4N12
_chemical_formula_sum              "Ca10 Si4 N12"
_cell_length_a       5.892878761114753
_cell_length_b       5.892878761114753
_cell_length_c       12.007336942246576
_cell_angle_alpha    85.09118679676794
_cell_angle_beta     85.09118679676794
_cell_angle_gamma    115.95974201116658

_space_group_name_H-M_alt    "P 1"
_space_group_IT_number       1

loop_
  _space_group_symop_operation_xyz
  'x, y, z'

loop_
  _atom_site_type_symbol
  _atom_site_label
  _atom_site_symmetry_multiplicity
  _atom_site_fract_x
  _atom_site_fract_y
  _atom_site_fract_z
  _atom_site_occupancy
  Ca  Ca1       1.0  0.7299833299999999  0.3801291099999999  0.73850706  1.0000
  Ca  Ca2       1.0  0.38012910999999994  0.7299833299999999  0.73850706  1.0000
  Ca  Ca3       1.0  0.27001666999999996  0.6198708899999998  0.26149294  1.0000
  Ca  Ca4       1.0  0.61987089  0.27001667  0.26149294  1.0000
  Ca  Ca5       1.0  0.08968008000000001  0.08968008  0.7929335699999999  1.0000
  Ca  Ca6       1.0  0.9103199199999997  0.9103199199999998  0.20706643  1.0000
  Ca  Ca7       1.0  0.81282144  0.18717856  0.49999999999999994  1.0000
  Ca  Ca8       1.0  0.18717856000000005  0.81282144  0.49999999999999994  1.0000
  Ca  Ca9       1.0  0.75853366  0.24146633999999997  0.0  1.0000
  Ca  Ca10      1.0  0.24146633999999986  0.7585336599999999  7.319541932529313e-20  1.0000
  Si  Si1       1.0  0.35074917000000005  0.35074917  0.5748932  1.0000
  Si  Si2       1.0  0.6492508300000001  0.64925083  0.42510679999999995  1.0000
  Si  Si3       1.0  0.67539069  0.67539069  0.93146243  1.0000
  Si  Si4       1.0  0.32460931  0.32460931  0.06853757  1.0000
  N   N1        1.0  0.09602457  0.38909633  0.63779302  1.0000
  N   N2        1.0  0.38909632999999993  0.09602456999999995  0.63779302  1.0000
  N   N3        1.0  0.9039754299999999  0.6109036699999999  0.36220697999999996  1.0000
  N   N4        1.0  0.6109036699999999  0.9039754299999999  0.36220697999999996  1.0000
  N   N5        1.0  0.9454121300000001  0.6571496500000001  0.8732033199999999  1.0000
  N   N6        1.0  0.65714965  0.94541213  0.8732033199999999  1.0000
  N   N7        1.0  0.054587869999999955  0.34285034999999997  0.12679668  1.0000
  N   N8        1.0  0.34285035  0.05458787  0.12679668  1.0000
  N   N9        1.0  0.39115384000000003  0.39115384  0.9153875299999998  1.0000
  N   N10       1.0  0.60884616  0.60884616  0.08461247  1.0000
  N   N11       1.0  0.35664761999999994  0.35664761999999994  0.4261373899999999  1.0000
  N   N12       1.0  0.64335238  0.64335238  0.57386261  1.0000
