data_image0
_chemical_formula_structural       Re2PtC12O12
_chemical_formula_sum              "Re2 Pt1 C12 O12"
_cell_length_a       6.539724
_cell_length_b       7.271681715952439
_cell_length_c       10.172568339887475
_cell_angle_alpha    71.53938141428638
_cell_angle_beta     85.40636274469837
_cell_angle_gamma    88.06005239435082

_space_group_name_H-M_alt    "P 1"
_space_group_IT_number       1

loop_
  _space_group_symop_operation_xyz
  'x, y, z'

loop_
  _atom_site_type_symbol
  _atom_site_label
  _atom_site_symmetry_multiplicity
  _atom_site_fract_x
  _atom_site_fract_y
  _atom_site_fract_z
  _atom_site_occupancy
  Re  Re1       1.0  0.787117  0.885688  0.269393  1.0000
  Re  Re2       1.0  0.21288299999999996  0.11431200000000002  0.730607  1.0000
  Pt  Pt1       1.0  0.0  0.0  0.0  1.0000
  C   C1        1.0  0.31784599999999996  0.33235700000000007  0.788777  1.0000
  C   C2        1.0  0.910331  0.113706  0.301057  1.0000
  C   C3        1.0  0.08966899999999998  0.886294  0.698943  1.0000
  C   C4        1.0  0.682154  0.667643  0.211223  1.0000
  C   C5        1.0  0.8925289999999999  0.25625800000000004  0.963908  1.0000
  C   C6        1.0  0.445031  0.9449620000000001  0.81857  1.0000
  C   C7        1.0  0.9606619999999999  0.267502  0.663124  1.0000
  C   C8        1.0  0.039337999999999984  0.7324979999999999  0.336876  1.0000
  C   C9        1.0  0.554969  0.055038000000000004  0.18143  1.0000
  C   C10       1.0  0.361072  0.19914499999999996  0.54922  1.0000
  C   C11       1.0  0.10747099999999998  0.743742  0.03609199999999999  1.0000
  C   C12       1.0  0.638928  0.8008549999999999  0.45078  1.0000
  O   O1        1.0  0.018543000000000007  0.755372  0.677676  1.0000
  O   O2        1.0  0.45408  0.251877  0.4415049999999999  1.0000
  O   O3        1.0  0.171475  0.586741  0.059966  1.0000
  O   O4        1.0  0.37889500000000004  0.45835500000000007  0.820825  1.0000
  O   O5        1.0  0.18576  0.645151  0.378016  1.0000
  O   O6        1.0  0.9814569999999999  0.244628  0.322324  1.0000
  O   O7        1.0  0.828525  0.413259  0.9400339999999999  1.0000
  O   O8        1.0  0.6211049999999999  0.541645  0.179175  1.0000
  O   O9        1.0  0.58133  0.8486149999999998  0.8683469999999999  1.0000
  O   O10       1.0  0.41867  0.15138499999999996  0.131653  1.0000
  O   O11       1.0  0.54592  0.7481229999999999  0.558495  1.0000
  O   O12       1.0  0.8142399999999999  0.3548490000000001  0.6219839999999999  1.0000
