data_image0
_chemical_formula_structural       Sc6Al16Pd7
_chemical_formula_sum              "Sc6 Al16 Pd7"
_cell_length_a       8.776603783239617
_cell_length_b       8.776492259859156
_cell_length_c       8.776408726949771
_cell_angle_alpha    60.00133613994934
_cell_angle_beta     60.000652944252835
_cell_angle_gamma    59.99873094472199

_space_group_name_H-M_alt    "P 1"
_space_group_IT_number       1

loop_
  _space_group_symop_operation_xyz
  'x, y, z'

loop_
  _atom_site_type_symbol
  _atom_site_label
  _atom_site_symmetry_multiplicity
  _atom_site_fract_x
  _atom_site_fract_y
  _atom_site_fract_z
  _atom_site_occupancy
  Sc  Sc1       1.0  0.6919775600000001  0.6919739099999999  0.30802377999999997  1.0000
  Sc  Sc2       1.0  0.3080283500000001  0.6919715899999999  0.3080275299999999  1.0000
  Sc  Sc3       1.0  0.6919796  0.30802189  0.30802378999999996  1.0000
  Sc  Sc4       1.0  0.3080284099999999  0.30802446000000006  0.6919738999999999  1.0000
  Sc  Sc5       1.0  0.6919776700000001  0.3080207099999999  0.6919765199999998  1.0000
  Sc  Sc6       1.0  0.30802663999999996  0.69197244  0.69197452  1.0000
  Al  Al1       1.0  0.8795784600000001  0.8795745599999999  0.3612692199999999  1.0000
  Al  Al2       1.0  0.87957798  0.36126558  0.8795789699999998  1.0000
  Al  Al3       1.0  0.36126983000000007  0.8795740799999999  0.8795788399999999  1.0000
  Al  Al4       1.0  0.8795788799999997  0.8795749000000002  0.87957921  1.0000
  Al  Al5       1.0  0.1204239400000001  0.12041980999999989  0.6387330399999999  1.0000
  Al  Al6       1.0  0.12042347999999997  0.63872933  0.12042427  1.0000
  Al  Al7       1.0  0.63873385  0.12041960000000007  0.12042436999999995  1.0000
  Al  Al8       1.0  0.12042384999999997  0.12041971000000003  0.12042441  1.0000
  Al  Al9       1.0  0.66635447  0.6663471899999999  0.0009507000000001207  1.0000
  Al  Al10      1.0  0.6663556  0.0009434999999998942  0.66635167  1.0000
  Al  Al11      1.0  0.0009552300000000517  0.6663471699999999  0.66634958  1.0000
  Al  Al12      1.0  0.6663555200000001  0.6663479299999998  0.6663505200000001  1.0000
  Al  Al13      1.0  0.33365430000000007  0.3336467699999999  0.9990523799999997  1.0000
  Al  Al14      1.0  0.33365541999999987  0.99904477  0.33365137999999994  1.0000
  Al  Al15      1.0  0.9990569200000002  0.3336468199999998  0.3336495500000001  1.0000
  Al  Al16      1.0  0.3336539800000001  0.33364670999999996  0.3336491999999999  1.0000
  Pd  Pd1       1.0  3.42e-06  0.99999917  1.1499999999999998e-06  1.0000
  Pd  Pd2       1.0  2.043999999994424e-05  0.99997928  0.49999933  1.0000
  Pd  Pd3       1.0  0.5000207900000001  0.9999605799999999  0.49998576  1.0000
  Pd  Pd4       1.0  0.99993909  0.5000613599999999  0.49993587999999994  1.0000
  Pd  Pd5       1.0  0.5000040899999999  0.49999593  6.800000000034875e-06  1.0000
  Pd  Pd6       1.0  0.99994705  0.50006592  5.639000000002732e-05  1.0000
  Pd  Pd7       1.0  0.49999618999999995  2.350000000071038e-06  0.9999973399999997  1.0000
