data_image0
_chemical_formula_structural       Al4Ga4Cl16
_chemical_formula_sum              "Al4 Ga4 Cl16"
_cell_length_a       9.94532544
_cell_length_b       7.220618370374383
_cell_length_c       11.574445370525549
_cell_angle_alpha    54.060325203355696
_cell_angle_beta     90.0
_cell_angle_gamma    90.0

_space_group_name_H-M_alt    "P 1"
_space_group_IT_number       1

loop_
  _space_group_symop_operation_xyz
  'x, y, z'

loop_
  _atom_site_type_symbol
  _atom_site_label
  _atom_site_symmetry_multiplicity
  _atom_site_fract_x
  _atom_site_fract_y
  _atom_site_fract_z
  _atom_site_occupancy
  Al  Al1       1.0  0.54083411  0.43049671  0.31637535999999994  1.0000
  Al  Al2       1.0  0.04083411  0.56950329  0.18362464  1.0000
  Al  Al3       1.0  0.45916589  0.5695032899999999  0.68362464  1.0000
  Al  Al4       1.0  0.9591658900000001  0.43049671  0.81637536  1.0000
  Ga  Ga1       1.0  0.2847373  0.9251799800000002  0.21446287999999997  1.0000
  Ga  Ga2       1.0  0.7847373  0.07482002000000008  0.2855371199999999  1.0000
  Ga  Ga3       1.0  0.7152627  0.07482002000000008  0.78553712  1.0000
  Ga  Ga4       1.0  0.2152627  0.9251799800000001  0.71446288  1.0000
  Cl  Cl1       1.0  0.9297999500000002  0.7921889900000002  0.67597548  1.0000
  Cl  Cl2       1.0  0.42979995  0.20781100999999996  0.82402452  1.0000
  Cl  Cl3       1.0  0.07020005  0.20781100999999996  0.32402452  1.0000
  Cl  Cl4       1.0  0.57020005  0.79218899  0.17597548000000002  1.0000
  Cl  Cl5       1.0  0.71594577  0.25917866  0.44702769000000003  1.0000
  Cl  Cl6       1.0  0.21594577  0.74082134  0.05297231  1.0000
  Cl  Cl7       1.0  0.28405423  0.74082134  0.55297231  1.0000
  Cl  Cl8       1.0  0.78405423  0.25917866  0.94702769  1.0000
  Cl  Cl9       1.0  0.01892258  0.7120368699999999  0.30200337  1.0000
  Cl  Cl10      1.0  0.51892258  0.28796312999999996  0.19799663  1.0000
  Cl  Cl11      1.0  0.98107742  0.28796312999999996  0.69799663  1.0000
  Cl  Cl12      1.0  0.48107742  0.71203687  0.80200337  1.0000
  Cl  Cl13      1.0  0.6340920000000001  0.6271075  0.55888639  1.0000
  Cl  Cl14      1.0  0.134092  0.3728924999999999  0.94111361  1.0000
  Cl  Cl15      1.0  0.365908  0.37289249999999996  0.44111361000000004  1.0000
  Cl  Cl16      1.0  0.865908  0.6271075  0.05888639  1.0000
