data_image0
_chemical_formula_structural       K4Br4O16
_chemical_formula_sum              "K4 Br4 O16"
_cell_length_a       6.075943
_cell_length_b       7.700106
_cell_length_c       9.177884
_cell_angle_alpha    90.0
_cell_angle_beta     90.0
_cell_angle_gamma    90.0

_space_group_name_H-M_alt    "P 1"
_space_group_IT_number       1

loop_
  _space_group_symop_operation_xyz
  'x, y, z'

loop_
  _atom_site_type_symbol
  _atom_site_label
  _atom_site_symmetry_multiplicity
  _atom_site_fract_x
  _atom_site_fract_y
  _atom_site_fract_z
  _atom_site_occupancy
  K   K1        1.0  0.25  0.16271099999999997  0.17758  1.0000
  K   K2        1.0  0.75  0.8372889999999998  0.82242  1.0000
  K   K3        1.0  0.75  0.662711  0.32242  1.0000
  K   K4        1.0  0.25  0.337289  0.6775799999999998  1.0000
  Br  Br1       1.0  0.25  0.6840569999999999  0.070108  1.0000
  Br  Br2       1.0  0.75  0.315943  0.929892  1.0000
  Br  Br3       1.0  0.75  0.184057  0.42989199999999994  1.0000
  Br  Br4       1.0  0.25  0.815943  0.5701079999999998  1.0000
  O   O1        1.0  0.529057  0.309455  0.419406  1.0000
  O   O2        1.0  0.029057000000000003  0.690545  0.580594  1.0000
  O   O3        1.0  0.470943  0.809455  0.08059399999999999  1.0000
  O   O4        1.0  0.970943  0.190545  0.9194059999999998  1.0000
  O   O5        1.0  0.470943  0.690545  0.580594  1.0000
  O   O6        1.0  0.970943  0.309455  0.419406  1.0000
  O   O7        1.0  0.529057  0.190545  0.9194059999999998  1.0000
  O   O8        1.0  0.029057000000000003  0.809455  0.08059399999999999  1.0000
  O   O9        1.0  0.25  0.547045  0.20826699999999998  1.0000
  O   O10       1.0  0.75  0.452955  0.7917329999999999  1.0000
  O   O11       1.0  0.75  0.047045  0.291733  1.0000
  O   O12       1.0  0.25  0.952955  0.708267  1.0000
  O   O13       1.0  0.25  0.579149  0.914145  1.0000
  O   O14       1.0  0.75  0.420851  0.085855  1.0000
  O   O15       1.0  0.75  0.079149  0.585855  1.0000
  O   O16       1.0  0.25  0.920851  0.414145  1.0000
