data_image0
_chemical_formula_structural       Na2Ni2P2O22
_chemical_formula_sum              "Na2 Ni2 P2 O22"
_cell_length_a       6.416759
_cell_length_b       6.416759
_cell_length_c       9.778643
_cell_angle_alpha    90.0
_cell_angle_beta     90.0
_cell_angle_gamma    90.0

_space_group_name_H-M_alt    "P 1"
_space_group_IT_number       1

loop_
  _space_group_symop_operation_xyz
  'x, y, z'

loop_
  _atom_site_type_symbol
  _atom_site_label
  _atom_site_symmetry_multiplicity
  _atom_site_fract_x
  _atom_site_fract_y
  _atom_site_fract_z
  _atom_site_occupancy
  Na  Na1       1.0  0.0  0.0  0.0  1.0000
  Na  Na2       1.0  0.0  0.0  0.5  1.0000
  Ni  Ni1       1.0  0.0  0.5  0.5  1.0000
  Ni  Ni2       1.0  0.5  0.0  0.0  1.0000
  P   P1        1.0  0.5  0.5  0.75  1.0000
  P   P2        1.0  0.5  0.5  0.25  1.0000
  O   O1        1.0  0.5  0.7016249999999999  0.659973  1.0000
  O   O2        1.0  0.5  0.298375  0.659973  1.0000
  O   O3        1.0  0.298375  0.5  0.159973  1.0000
  O   O4        1.0  0.7016249999999999  0.5  0.159973  1.0000
  O   O5        1.0  0.5  0.7016249999999999  0.340027  1.0000
  O   O6        1.0  0.5  0.298375  0.340027  1.0000
  O   O7        1.0  0.7016249999999999  0.5  0.8400270000000001  1.0000
  O   O8        1.0  0.298375  0.5  0.8400270000000001  1.0000
  O   O9        1.0  0.0  0.5  0.687317  1.0000
  O   O10       1.0  0.5  0.0  0.187317  1.0000
  O   O11       1.0  0.0  0.5  0.312683  1.0000
  O   O12       1.0  0.5  0.0  0.812683  1.0000
  O   O13       1.0  0.198413  0.704765  0.5  1.0000
  O   O14       1.0  0.801587  0.295235  0.5  1.0000
  O   O15       1.0  0.295235  0.198413  0.0  1.0000
  O   O16       1.0  0.704765  0.801587  0.0  1.0000
  O   O17       1.0  0.801587  0.704765  0.5  1.0000
  O   O18       1.0  0.198413  0.295235  0.5  1.0000
  O   O19       1.0  0.704765  0.198413  0.0  1.0000
  O   O20       1.0  0.295235  0.801587  0.0  1.0000
  O   O21       1.0  0.0  0.0  0.75  1.0000
  O   O22       1.0  0.0  0.0  0.25  1.0000
