data_image0
_chemical_formula_structural       Er6Si4Ni12
_chemical_formula_sum              "Er6 Si4 Ni12"
_cell_length_a       7.556092432628917
_cell_length_b       7.556092432628917
_cell_length_c       7.556092432628917
_cell_angle_alpha    109.47122063449069
_cell_angle_beta     109.47122063449069
_cell_angle_gamma    109.47122063449069

_space_group_name_H-M_alt    "P 1"
_space_group_IT_number       1

loop_
  _space_group_symop_operation_xyz
  'x, y, z'

loop_
  _atom_site_type_symbol
  _atom_site_label
  _atom_site_symmetry_multiplicity
  _atom_site_fract_x
  _atom_site_fract_y
  _atom_site_fract_z
  _atom_site_occupancy
  Er  Er1       1.0  0.716125  0.716125  0.0  1.0000
  Er  Er2       1.0  0.283875  0.0  0.283875  1.0000
  Er  Er3       1.0  0.0  0.283875  0.283875  1.0000
  Er  Er4       1.0  0.283875  0.283875  0.0  1.0000
  Er  Er5       1.0  0.716125  0.0  0.716125  1.0000
  Er  Er6       1.0  2.0224485874834192e-17  0.716125  0.716125  1.0000
  Si  Si1       1.0  0.0  0.0  0.5  1.0000
  Si  Si2       1.0  0.0  0.5  0.0  1.0000
  Si  Si3       1.0  0.5  0.0  0.0  1.0000
  Si  Si4       1.0  0.5  0.5  0.5  1.0000
  Ni  Ni1       1.0  0.331237  0.331237  0.662475  1.0000
  Ni  Ni2       1.0  0.668763  0.0  0.33123699999999995  1.0000
  Ni  Ni3       1.0  0.0  0.668763  0.33123699999999995  1.0000
  Ni  Ni4       1.0  0.6687629999999999  0.33123699999999995  0.0  1.0000
  Ni  Ni5       1.0  0.331237  0.662475  0.331237  1.0000
  Ni  Ni6       1.0  3.591623815156189e-17  0.331237  0.668763  1.0000
  Ni  Ni7       1.0  0.331237  0.668763  0.0  1.0000
  Ni  Ni8       1.0  0.33123700000000006  0.0  0.668763  1.0000
  Ni  Ni9       1.0  0.662475  0.331237  0.331237  1.0000
  Ni  Ni10      1.0  0.668763  0.668763  0.337525  1.0000
  Ni  Ni11      1.0  0.6687629999999999  0.33752499999999996  0.6687629999999999  1.0000
  Ni  Ni12      1.0  0.33752499999999996  0.6687629999999999  0.668763  1.0000
