data_image0
_chemical_formula_structural       Tb4B4S12
_chemical_formula_sum              "Tb4 B4 S12"
_cell_length_a       6.10527
_cell_length_b       7.247642
_cell_length_c       8.755194
_cell_angle_alpha    90.0
_cell_angle_beta     90.0
_cell_angle_gamma    90.0

_space_group_name_H-M_alt    "P 1"
_space_group_IT_number       1

loop_
  _space_group_symop_operation_xyz
  'x, y, z'

loop_
  _atom_site_type_symbol
  _atom_site_label
  _atom_site_symmetry_multiplicity
  _atom_site_fract_x
  _atom_site_fract_y
  _atom_site_fract_z
  _atom_site_occupancy
  Tb  Tb1       1.0  0.9437200000000001  0.880248  0.716182  1.0000
  Tb  Tb2       1.0  0.55628  0.380248  0.716182  1.0000
  Tb  Tb3       1.0  0.44372  0.619752  0.216182  1.0000
  Tb  Tb4       1.0  0.05627999999999999  0.119752  0.216182  1.0000
  B   B1        1.0  0.602279  0.14382600000000004  0.048153  1.0000
  B   B2        1.0  0.397721  0.856174  0.548153  1.0000
  B   B3        1.0  0.897721  0.643826  0.048153  1.0000
  B   B4        1.0  0.102279  0.356174  0.548153  1.0000
  S   S1        1.0  0.16970299999999996  0.82411  0.41579400000000005  1.0000
  S   S2        1.0  0.13486  0.7942030000000001  0.019581000000000005  1.0000
  S   S3        1.0  0.830297  0.17589  0.9157940000000001  1.0000
  S   S4        1.0  0.86514  0.205797  0.519581  1.0000
  S   S5        1.0  0.63486  0.705797  0.519581  1.0000
  S   S6        1.0  0.377625  0.007113  0.71119  1.0000
  S   S7        1.0  0.36514  0.294203  0.019581000000000005  1.0000
  S   S8        1.0  0.12237499999999998  0.507113  0.71119  1.0000
  S   S9        1.0  0.330297  0.32411  0.41579400000000005  1.0000
  S   S10       1.0  0.669703  0.6758900000000001  0.9157940000000001  1.0000
  S   S11       1.0  0.8776249999999999  0.4928870000000001  0.21119000000000002  1.0000
  S   S12       1.0  0.622375  0.992887  0.21119000000000002  1.0000
