data_image0
_chemical_formula_structural       Zr4Au16
_chemical_formula_sum              "Zr4 Au16"
_cell_length_a       4.93081182
_cell_length_b       5.07944016
_cell_length_c       14.45290451
_cell_angle_alpha    90.0
_cell_angle_beta     90.0
_cell_angle_gamma    90.0

_space_group_name_H-M_alt    "P 1"
_space_group_IT_number       1

loop_
  _space_group_symop_operation_xyz
  'x, y, z'

loop_
  _atom_site_type_symbol
  _atom_site_label
  _atom_site_symmetry_multiplicity
  _atom_site_fract_x
  _atom_site_fract_y
  _atom_site_fract_z
  _atom_site_occupancy
  Zr  Zr1       1.0  0.25  0.65528054  0.09810112  1.0000
  Zr  Zr2       1.0  0.7500000000000001  0.34471946  0.90189888  1.0000
  Zr  Zr3       1.0  0.25  0.15528054  0.40189888  1.0000
  Zr  Zr4       1.0  0.7500000000000001  0.8447194600000001  0.59810112  1.0000
  Au  Au1       1.0  0.7500000000000001  0.84503937  0.79850288  1.0000
  Au  Au2       1.0  0.25  0.15496063  0.20149712  1.0000
  Au  Au3       1.0  0.7500000000000001  0.34503937  0.70149712  1.0000
  Au  Au4       1.0  0.25  0.65496063  0.29850288  1.0000
  Au  Au5       1.0  0.7500000000000001  0.8387601600000001  0.39918144  1.0000
  Au  Au6       1.0  0.25  0.16123984000000002  0.60081856  1.0000
  Au  Au7       1.0  0.7500000000000001  0.33876016  0.10081856  1.0000
  Au  Au8       1.0  0.25  0.66123984  0.89918144  1.0000
  Au  Au9       1.0  0.7500000000000001  0.8210347700000001  0.19616917  1.0000
  Au  Au10      1.0  0.25  0.17896523000000003  0.80383083  1.0000
  Au  Au11      1.0  0.7500000000000001  0.32103477  0.30383083  1.0000
  Au  Au12      1.0  0.25  0.6789652300000001  0.69616917  1.0000
  Au  Au13      1.0  0.25  0.66042957  0.499746  1.0000
  Au  Au14      1.0  0.7500000000000001  0.33957043  0.500254  1.0000
  Au  Au15      1.0  0.25  0.16042957  0.000254  1.0000
  Au  Au16      1.0  0.7500000000000001  0.83957043  0.999746  1.0000
