data_image0
_chemical_formula_structural       Ce4Bi10Rh6
_chemical_formula_sum              "Ce4 Bi10 Rh6"
_cell_length_a       13.88962223577031
_cell_length_b       13.88962223577031
_cell_length_c       7.577222
_cell_angle_alpha    90.0
_cell_angle_beta     90.0
_cell_angle_gamma    160.66538878810502

_space_group_name_H-M_alt    "P 1"
_space_group_IT_number       1

loop_
  _space_group_symop_operation_xyz
  'x, y, z'

loop_
  _atom_site_type_symbol
  _atom_site_label
  _atom_site_symmetry_multiplicity
  _atom_site_fract_x
  _atom_site_fract_y
  _atom_site_fract_z
  _atom_site_occupancy
  Ce  Ce1       1.0  0.47442400000000007  0.525576  0.24033799999999997  1.0000
  Ce  Ce2       1.0  0.17079999999999998  0.8292  0.27392199999999994  1.0000
  Ce  Ce3       1.0  0.8292  0.17079999999999995  0.773922  1.0000
  Ce  Ce4       1.0  0.525576  0.474424  0.7403379999999999  1.0000
  Bi  Bi1       1.0  0.404243  0.595757  0.6154789999999999  1.0000
  Bi  Bi2       1.0  0.28914700000000015  0.7108530000000001  0.49014099999999994  1.0000
  Bi  Bi3       1.0  0.7108530000000001  0.289147  0.9901409999999999  1.0000
  Bi  Bi4       1.0  0.12112400000000004  0.878876  0.7480809999999999  1.0000
  Bi  Bi5       1.0  0.29541900000000004  0.704581  0.06174999999999999  1.0000
  Bi  Bi6       1.0  0.953215  0.046785  0.908192  1.0000
  Bi  Bi7       1.0  0.7045810000000001  0.295419  0.5617499999999999  1.0000
  Bi  Bi8       1.0  0.878876  0.121124  0.24808099999999997  1.0000
  Bi  Bi9       1.0  0.046785000000000056  0.9532150000000001  0.40819199999999994  1.0000
  Bi  Bi10      1.0  0.5957570000000001  0.4042430000000001  0.11547899999999998  1.0000
  Rh  Rh1       1.0  0.776053  0.223947  0.279843  1.0000
  Rh  Rh2       1.0  0.603402  0.39659800000000006  0.492116  1.0000
  Rh  Rh3       1.0  0.04958700000000015  0.9504130000000001  0.025326999999999995  1.0000
  Rh  Rh4       1.0  0.223947  0.776053  0.7798429999999998  1.0000
  Rh  Rh5       1.0  0.950413  0.04958700000000002  0.5253269999999999  1.0000
  Rh  Rh6       1.0  0.396598  0.603402  0.9921159999999999  1.0000
