data_image0
_chemical_formula_structural       Ca6Co2Rh2O12
_chemical_formula_sum              "Ca6 Co2 Rh2 O12"
_cell_length_a       6.447280278633154
_cell_length_b       6.447280278633154
_cell_length_c       6.447279788569207
_cell_angle_alpha    90.97966764885518
_cell_angle_beta     90.97966764885518
_cell_angle_gamma    90.97967604718035

_space_group_name_H-M_alt    "P 1"
_space_group_IT_number       1

loop_
  _space_group_symop_operation_xyz
  'x, y, z'

loop_
  _atom_site_type_symbol
  _atom_site_label
  _atom_site_symmetry_multiplicity
  _atom_site_fract_x
  _atom_site_fract_y
  _atom_site_fract_z
  _atom_site_occupancy
  Ca  Ca1       1.0  0.8826090000000001  0.617391  0.25  1.0000
  Ca  Ca2       1.0  0.25000000000000006  0.882609  0.6173910000000001  1.0000
  Ca  Ca3       1.0  0.617391  0.25  0.8826090000000001  1.0000
  Ca  Ca4       1.0  0.7500000000000001  0.11739099999999995  0.382609  1.0000
  Ca  Ca5       1.0  0.38260900000000003  0.75  0.117391  1.0000
  Ca  Ca6       1.0  0.11739099999999998  0.382609  0.7500000000000001  1.0000
  Co  Co1       1.0  0.25  0.25  0.25  1.0000
  Co  Co2       1.0  0.7500000000000001  0.75  0.7500000000000001  1.0000
  Rh  Rh1       1.0  0.5  0.5  0.5  1.0000
  Rh  Rh2       1.0  0.0  0.0  0.0  1.0000
  O   O1        1.0  0.200228  0.53541  0.400871  1.0000
  O   O2        1.0  0.400871  0.200228  0.53541  1.0000
  O   O3        1.0  0.53541  0.4008709999999999  0.20022800000000002  1.0000
  O   O4        1.0  0.900871  0.03540999999999993  0.7002280000000001  1.0000
  O   O5        1.0  0.7002280000000001  0.9008710000000001  0.03541  1.0000
  O   O6        1.0  0.035409999999999976  0.700228  0.9008710000000001  1.0000
  O   O7        1.0  0.7997720000000001  0.46459000000000006  0.5991290000000001  1.0000
  O   O8        1.0  0.599129  0.799772  0.46459000000000006  1.0000
  O   O9        1.0  0.46458999999999995  0.5991289999999999  0.7997720000000001  1.0000
  O   O10       1.0  0.09912899999999988  0.9645899999999998  0.29977200000000004  1.0000
  O   O11       1.0  0.299772  0.09912899999999998  0.9645900000000001  1.0000
  O   O12       1.0  0.96459  0.29977200000000004  0.09912900000000001  1.0000
