data_image0
_chemical_formula_structural       Sn16Au8
_chemical_formula_sum              "Sn16 Au8"
_cell_length_a       6.95608227
_cell_length_b       7.06648085
_cell_length_c       12.03625791
_cell_angle_alpha    90.0
_cell_angle_beta     90.0
_cell_angle_gamma    90.0

_space_group_name_H-M_alt    "P 1"
_space_group_IT_number       1

loop_
  _space_group_symop_operation_xyz
  'x, y, z'

loop_
  _atom_site_type_symbol
  _atom_site_label
  _atom_site_symmetry_multiplicity
  _atom_site_fract_x
  _atom_site_fract_y
  _atom_site_fract_z
  _atom_site_occupancy
  Sn  Sn1       1.0  0.62887777  0.51899849  0.32617936  1.0000
  Sn  Sn2       1.0  0.12887777000000003  0.9810015099999999  0.67382064  1.0000
  Sn  Sn3       1.0  0.37112223000000005  0.01899849  0.17382064  1.0000
  Sn  Sn4       1.0  0.8711222300000001  0.48100150999999997  0.82617936  1.0000
  Sn  Sn5       1.0  0.37112223000000005  0.48100150999999997  0.67382064  1.0000
  Sn  Sn6       1.0  0.8711222300000001  0.01899849  0.32617936  1.0000
  Sn  Sn7       1.0  0.62887777  0.9810015099999999  0.82617936  1.0000
  Sn  Sn8       1.0  0.12887777000000003  0.51899849  0.17382064  1.0000
  Sn  Sn9       1.0  0.85570931  0.24298097999999999  0.08765998000000001  1.0000
  Sn  Sn10      1.0  0.35570931  0.25701902  0.91234002  1.0000
  Sn  Sn11      1.0  0.14429069000000003  0.7429809799999999  0.41234002  1.0000
  Sn  Sn12      1.0  0.6442906900000002  0.7570190199999999  0.58765998  1.0000
  Sn  Sn13      1.0  0.14429069000000003  0.7570190199999999  0.91234002  1.0000
  Sn  Sn14      1.0  0.6442906900000002  0.7429809799999999  0.08765998000000001  1.0000
  Sn  Sn15      1.0  0.85570931  0.25701902  0.58765998  1.0000
  Sn  Sn16      1.0  0.35570931  0.24298097999999999  0.41234002  1.0000
  Au  Au1       1.0  0.5102331500000001  0.8829742399999999  0.38122503  1.0000
  Au  Au2       1.0  0.01023315  0.61702576  0.61877497  1.0000
  Au  Au3       1.0  0.48976685  0.38297423999999997  0.11877497  1.0000
  Au  Au4       1.0  0.98976685  0.11702575999999999  0.88122503  1.0000
  Au  Au5       1.0  0.48976685  0.11702575999999999  0.61877497  1.0000
  Au  Au6       1.0  0.98976685  0.38297423999999997  0.38122503  1.0000
  Au  Au7       1.0  0.5102331500000001  0.61702576  0.88122503  1.0000
  Au  Au8       1.0  0.01023315  0.8829742399999999  0.11877497  1.0000
