data_image0
_chemical_formula_structural       Ta6Co16Ge7
_chemical_formula_sum              "Ta6 Co16 Ge7"
_cell_length_a       7.975815181038309
_cell_length_b       7.975807120018786
_cell_length_c       7.97581669424831
_cell_angle_alpha    60.00010000608045
_cell_angle_beta     60.00002756761211
_cell_angle_gamma    60.00008428666826

_space_group_name_H-M_alt    "P 1"
_space_group_IT_number       1

loop_
  _space_group_symop_operation_xyz
  'x, y, z'

loop_
  _atom_site_type_symbol
  _atom_site_label
  _atom_site_symmetry_multiplicity
  _atom_site_fract_x
  _atom_site_fract_y
  _atom_site_fract_z
  _atom_site_occupancy
  Ta  Ta1       1.0  0.70170101  0.29828694999999994  0.2982946099999999  1.0000
  Ta  Ta2       1.0  0.7017008000000002  0.2982859399999999  0.7017198899999998  1.0000
  Ta  Ta3       1.0  0.29829577  0.7017147699999999  0.70170882  1.0000
  Ta  Ta4       1.0  0.29829656000000004  0.70171543  0.29828126999999993  1.0000
  Ta  Ta5       1.0  0.2983009900000001  0.2982791999999999  0.7017105199999999  1.0000
  Ta  Ta6       1.0  0.70169967  0.70172478  0.29828769999999993  1.0000
  Co  Co1       1.0  0.8805519400000001  0.8805491199999999  0.8805548099999999  1.0000
  Co  Co2       1.0  0.9987727100000001  0.33374266999999996  0.33374269999999995  1.0000
  Co  Co3       1.0  0.11945517000000007  0.11945329  0.6416360899999999  1.0000
  Co  Co4       1.0  0.6662510199999999  0.66625588  0.0012387400000000424  1.0000
  Co  Co5       1.0  0.3337448300000002  0.33374185  0.9987721699999998  1.0000
  Co  Co6       1.0  0.6662499100000001  0.66625458  0.66625225  1.0000
  Co  Co7       1.0  0.33374431000000004  0.3337413599999999  0.3337409599999999  1.0000
  Co  Co8       1.0  0.88054953  0.8805510899999999  0.3583473099999999  1.0000
  Co  Co9       1.0  0.33374461  0.9987738499999999  0.3337411  1.0000
  Co  Co10      1.0  0.11945615000000002  0.11945411000000003  0.11945411999999996  1.0000
  Co  Co11      1.0  0.8805488800000002  0.35835057000000003  0.8805525999999998  1.0000
  Co  Co12      1.0  0.6416509  0.11944967  0.11944873999999997  1.0000
  Co  Co13      1.0  0.11945621000000003  0.6416353599999999  0.11945298999999994  1.0000
  Co  Co14      1.0  0.6662523200000001  0.0012370399999999018  0.6662550399999999  1.0000
  Co  Co15      1.0  0.35834278000000025  0.8805491999999998  0.8805523299999999  1.0000
  Co  Co16      1.0  0.001237570000000083  0.6662550299999999  0.6662533999999999  1.0000
  Ge  Ge1       1.0  0.5000118200000001  0.5000128699999999  0.9999872  1.0000
  Ge  Ge2       1.0  0.99998683  0.50000928  0.99999289  1.0000
  Ge  Ge3       1.0  1.0299999999999999e-06  1.66e-06  0.99999914  1.0000
  Ge  Ge4       1.0  0.5000068100000001  0.9999873399999999  0.5000102699999999  1.0000
  Ge  Ge5       1.0  0.99999444  0.99999145  0.50000647  1.0000
  Ge  Ge6       1.0  0.99998645  0.50000969  0.50001122  1.0000
  Ge  Ge7       1.0  0.500007  0.99998696  0.99999567  1.0000
