data_image0
_chemical_formula_structural       Re6O18F6
_chemical_formula_sum              "Re6 O18 F6"
_cell_length_a       6.08501428
_cell_length_b       6.809656731527199
_cell_length_c       10.474869216887562
_cell_angle_alpha    89.74707039326186
_cell_angle_beta     90.0
_cell_angle_gamma    90.0

_space_group_name_H-M_alt    "P 1"
_space_group_IT_number       1

loop_
  _space_group_symop_operation_xyz
  'x, y, z'

loop_
  _atom_site_type_symbol
  _atom_site_label
  _atom_site_symmetry_multiplicity
  _atom_site_fract_x
  _atom_site_fract_y
  _atom_site_fract_z
  _atom_site_occupancy
  Re  Re1       1.0  0.048022529999999994  0.0  0.25  1.0000
  Re  Re2       1.0  0.28386525  0.3344987  0.63825583  1.0000
  Re  Re3       1.0  0.9519774700000001  0.0  0.75  1.0000
  Re  Re4       1.0  0.71613475  0.3344987  0.13825583000000002  1.0000
  Re  Re5       1.0  0.71613475  0.6655013000000001  0.36174417000000003  1.0000
  Re  Re6       1.0  0.28386525  0.6655013000000001  0.8617441700000001  1.0000
  O   O1        1.0  0.21914462  0.85319981  0.16560584  1.0000
  O   O2        1.0  0.7567767  0.51649628  0.48971546  1.0000
  O   O3        1.0  0.78085538  0.14680019  0.8343941599999999  1.0000
  O   O4        1.0  0.9622686600000001  0.83311633  0.38723611999999996  1.0000
  O   O5        1.0  0.49640209  0.18892770999999997  0.5941692900000001  1.0000
  O   O6        1.0  0.21914462  0.14680019  0.33439416  1.0000
  O   O7        1.0  0.55485391  0.5  0.25  1.0000
  O   O8        1.0  0.03773134  0.16688367  0.61276388  1.0000
  O   O9        1.0  0.24322330000000003  0.48350372  0.51028454  1.0000
  O   O10       1.0  0.49640209  0.81107229  0.9058307099999999  1.0000
  O   O11       1.0  0.9622686600000001  0.16688367  0.11276388  1.0000
  O   O12       1.0  0.50359791  0.81107229  0.40583071  1.0000
  O   O13       1.0  0.44514609  0.5  0.75  1.0000
  O   O14       1.0  0.7567767  0.48350372  0.01028454  1.0000
  O   O15       1.0  0.78085538  0.85319981  0.66560584  1.0000
  O   O16       1.0  0.03773134  0.83311633  0.8872361199999999  1.0000
  O   O17       1.0  0.24322330000000003  0.51649628  0.9897154599999999  1.0000
  O   O18       1.0  0.50359791  0.18892771  0.09416929  1.0000
  F   F1        1.0  0.9491932700000001  0.5  0.25  1.0000
  F   F2        1.0  0.05080673  0.5  0.75  1.0000
  F   F3        1.0  0.7653613  0.16629512  0.31125173  1.0000
  F   F4        1.0  0.2346387  0.83370488  0.68874827  1.0000
  F   F5        1.0  0.7653613  0.83370488  0.18874827000000002  1.0000
  F   F6        1.0  0.2346387  0.16629512  0.8112517300000001  1.0000
