data_image0
_chemical_formula_structural       K8Eu2P4Se16
_chemical_formula_sum              "K8 Eu2 P4 Se16"
_cell_length_a       11.864533501346692
_cell_length_b       11.864533501346692
_cell_length_c       11.864533501346692
_cell_angle_alpha    134.10085077549166
_cell_angle_beta     128.29224773328423
_cell_angle_gamma    71.60318415051961

_space_group_name_H-M_alt    "P 1"
_space_group_IT_number       1

loop_
  _space_group_symop_operation_xyz
  'x, y, z'

loop_
  _atom_site_type_symbol
  _atom_site_label
  _atom_site_symmetry_multiplicity
  _atom_site_fract_x
  _atom_site_fract_y
  _atom_site_fract_z
  _atom_site_occupancy
  K   K1        1.0  0.41570299999999993  0.29913699999999993  0.8834339999999999  1.0000
  K   K2        1.0  0.5842970000000001  0.7008629999999999  0.11656600000000002  1.0000
  K   K3        1.0  0.08429700000000002  0.467732  0.383434  1.0000
  K   K4        1.0  0.9157030000000002  0.5322679999999997  0.616566  1.0000
  K   K5        1.0  0.009608999999999958  0.7596090000000001  0.2500000000000001  1.0000
  K   K6        1.0  0.49039099999999997  0.24039099999999994  0.25  1.0000
  K   K7        1.0  0.9903909999999999  0.24039099999999977  0.7499999999999999  1.0000
  K   K8        1.0  0.5096090000000001  0.7596090000000001  0.7500000000000001  1.0000
  Eu  Eu1       1.0  0.25  0.0  0.25  1.0000
  Eu  Eu2       1.0  0.75  0.9999999999999999  0.7499999999999999  1.0000
  P   P1        1.0  0.8709670000000002  0.07625899999999995  0.205292  1.0000
  P   P2        1.0  0.12903300000000004  0.923741  0.794708  1.0000
  P   P3        1.0  0.6290329999999998  0.33432599999999996  0.7052919999999999  1.0000
  P   P4        1.0  0.370967  0.665675  0.294708  1.0000
  Se  Se1       1.0  0.09742299999999995  0.22251399999999996  0.473774  1.0000
  Se  Se2       1.0  0.2512599999999998  0.777486  0.8749089999999999  1.0000
  Se  Se3       1.0  0.4025770000000001  0.37635099999999994  0.625091  1.0000
  Se  Se4       1.0  0.24874000000000024  0.623649  0.02622600000000009  1.0000
  Se  Se5       1.0  0.9025769999999999  0.7774860000000001  0.5262260000000001  1.0000
  Se  Se6       1.0  0.74874  0.22251400000000002  0.12509100000000006  1.0000
  Se  Se7       1.0  0.5974230000000001  0.623649  0.37490900000000005  1.0000
  Se  Se8       1.0  0.75126  0.37635099999999977  0.9737739999999999  1.0000
  Se  Se9       1.0  0.39568400000000004  0.9276329999999999  0.531949  1.0000
  Se  Se10      1.0  0.604316  0.072367  0.468051  1.0000
  Se  Se11      1.0  0.10431600000000002  0.136264  0.03194900000000001  1.0000
  Se  Se12      1.0  0.8956840000000001  0.863736  0.968051  1.0000
  Se  Se13      1.0  0.2420060000000002  0.9883909999999999  0.746386  1.0000
  Se  Se14      1.0  0.757994  0.011608999999999965  0.25361399999999995  1.0000
  Se  Se15      1.0  0.25799400000000006  0.50438  0.24638600000000002  1.0000
  Se  Se16      1.0  0.742006  0.49562  0.753614  1.0000
