data_image0
_chemical_formula_structural       Ho4B16Ru4
_chemical_formula_sum              "Ho4 B16 Ru4"
_cell_length_a       3.5412049
_cell_length_b       5.93201693
_cell_length_c       11.47262946
_cell_angle_alpha    90.0
_cell_angle_beta     90.0
_cell_angle_gamma    90.0

_space_group_name_H-M_alt    "P 1"
_space_group_IT_number       1

loop_
  _space_group_symop_operation_xyz
  'x, y, z'

loop_
  _atom_site_type_symbol
  _atom_site_label
  _atom_site_symmetry_multiplicity
  _atom_site_fract_x
  _atom_site_fract_y
  _atom_site_fract_z
  _atom_site_occupancy
  Ho  Ho1       1.0  0.0  0.62873717  0.64996799  1.0000
  Ho  Ho2       1.0  0.0  0.37126283  0.35003201  1.0000
  Ho  Ho3       1.0  0.0  0.12873717  0.85003201  1.0000
  Ho  Ho4       1.0  0.0  0.8712628299999999  0.14996799  1.0000
  B   B1        1.0  0.5  0.97604712  0.69171801  1.0000
  B   B2        1.0  0.5  0.023952879999999996  0.30828199  1.0000
  B   B3        1.0  0.5  0.47604712  0.80828199  1.0000
  B   B4        1.0  0.5  0.52395288  0.19171801  1.0000
  B   B5        1.0  0.5  0.78914855  0.8145726000000001  1.0000
  B   B6        1.0  0.5  0.21085144999999997  0.1854274  1.0000
  B   B7        1.0  0.5  0.28914855  0.6854274  1.0000
  B   B8        1.0  0.5  0.71085145  0.3145726  1.0000
  B   B9        1.0  0.5  0.86386119  0.96986568  1.0000
  B   B10       1.0  0.5  0.13613881  0.030134320000000003  1.0000
  B   B11       1.0  0.5  0.36386119  0.53013432  1.0000
  B   B12       1.0  0.5  0.63613881  0.46986568000000006  1.0000
  B   B13       1.0  0.5  0.8878205  0.54681565  1.0000
  B   B14       1.0  0.5  0.1121795  0.45318435000000007  1.0000
  B   B15       1.0  0.5  0.38782049999999996  0.9531843500000001  1.0000
  B   B16       1.0  0.5  0.6121795  0.04681565  1.0000
  Ru  Ru1       1.0  0.0  0.64038218  0.90733121  1.0000
  Ru  Ru2       1.0  0.0  0.3596178199999999  0.09266879  1.0000
  Ru  Ru3       1.0  0.0  0.14038217999999997  0.5926687900000001  1.0000
  Ru  Ru4       1.0  0.0  0.8596178199999999  0.40733121000000005  1.0000
