data_image0
_chemical_formula_structural       Na2Nb2Se4O14
_chemical_formula_sum              "Na2 Nb2 Se4 O14"
_cell_length_a       6.887925999298774
_cell_length_b       6.887925999298774
_cell_length_c       7.516351
_cell_angle_alpha    90.0
_cell_angle_beta     90.0
_cell_angle_gamma    110.33691453862001

_space_group_name_H-M_alt    "P 1"
_space_group_IT_number       1

loop_
  _space_group_symop_operation_xyz
  'x, y, z'

loop_
  _atom_site_type_symbol
  _atom_site_label
  _atom_site_symmetry_multiplicity
  _atom_site_fract_x
  _atom_site_fract_y
  _atom_site_fract_z
  _atom_site_occupancy
  Na  Na1       1.0  0.979966  0.979966  0.364591  1.0000
  Na  Na2       1.0  0.020034  0.020034  0.864591  1.0000
  Nb  Nb1       1.0  0.511875  0.511875  0.90039  1.0000
  Nb  Nb2       1.0  0.4881250000000001  0.48812500000000003  0.4003900000000001  1.0000
  Se  Se1       1.0  0.5646800000000001  0.9658130000000001  0.6262430000000001  1.0000
  Se  Se2       1.0  0.9658130000000001  0.56468  0.6262430000000001  1.0000
  Se  Se3       1.0  0.43532  0.034187000000000016  0.126243  1.0000
  Se  Se4       1.0  0.034187000000000044  0.43532  0.126243  1.0000
  O   O1        1.0  0.546585  0.7989409999999999  0.810359  1.0000
  O   O2        1.0  0.7989410000000002  0.5465850000000001  0.810359  1.0000
  O   O3        1.0  0.453415  0.201059  0.31035900000000005  1.0000
  O   O4        1.0  0.20105900000000002  0.453415  0.31035900000000005  1.0000
  O   O5        1.0  0.543742  0.793758  0.444468  1.0000
  O   O6        1.0  0.7937580000000001  0.543742  0.444468  1.0000
  O   O7        1.0  0.45625800000000005  0.20624200000000004  0.9444680000000001  1.0000
  O   O8        1.0  0.20624200000000006  0.45625800000000005  0.9444680000000001  1.0000
  O   O9        1.0  0.819205  0.09851499999999998  0.622208  1.0000
  O   O10       1.0  0.09851500000000006  0.8192050000000001  0.622208  1.0000
  O   O11       1.0  0.18079500000000007  0.9014850000000001  0.12220800000000001  1.0000
  O   O12       1.0  0.9014850000000001  0.180795  0.12220800000000001  1.0000
  O   O13       1.0  0.41287  0.41287  0.631402  1.0000
  O   O14       1.0  0.5871300000000002  0.58713  0.131402  1.0000
