data_image0
_chemical_formula_structural       Ba4Cu2P4O18
_chemical_formula_sum              "Ba4 Cu2 P4 O18"
_cell_length_a       5.822431
_cell_length_b       8.489971
_cell_length_c       9.047364695030483
_cell_angle_alpha    67.79646642497852
_cell_angle_beta     90.0
_cell_angle_gamma    90.0

_space_group_name_H-M_alt    "P 1"
_space_group_IT_number       1

loop_
  _space_group_symop_operation_xyz
  'x, y, z'

loop_
  _atom_site_type_symbol
  _atom_site_label
  _atom_site_symmetry_multiplicity
  _atom_site_fract_x
  _atom_site_fract_y
  _atom_site_fract_z
  _atom_site_occupancy
  Ba  Ba1       1.0  0.7499999999999999  0.79093  0.093584  1.0000
  Ba  Ba2       1.0  0.25  0.20906999999999995  0.906416  1.0000
  Ba  Ba3       1.0  0.7499999999999999  0.19674700000000003  0.281999  1.0000
  Ba  Ba4       1.0  0.25  0.8032529999999999  0.718001  1.0000
  Cu  Cu1       1.0  0.5  0.5  0.5  1.0000
  Cu  Cu2       1.0  0.0  0.5  0.5  1.0000
  P   P1        1.0  0.25  0.507934  0.18724  1.0000
  P   P2        1.0  0.7499999999999999  0.49206600000000006  0.8127599999999999  1.0000
  P   P3        1.0  0.25  0.9420969999999999  0.302654  1.0000
  P   P4        1.0  0.7499999999999999  0.057903  0.697346  1.0000
  O   O1        1.0  0.475162  0.49436899999999995  0.290587  1.0000
  O   O2        1.0  0.9751619999999999  0.5056309999999999  0.709413  1.0000
  O   O3        1.0  0.5248379999999999  0.5056309999999999  0.709413  1.0000
  O   O4        1.0  0.024838  0.49436899999999995  0.290587  1.0000
  O   O5        1.0  0.25  0.681314  0.048513  1.0000
  O   O6        1.0  0.7499999999999999  0.318686  0.951487  1.0000
  O   O7        1.0  0.25  0.358638  0.131539  1.0000
  O   O8        1.0  0.7499999999999999  0.6413619999999999  0.868461  1.0000
  O   O9        1.0  0.46628499999999995  0.9809489999999998  0.194858  1.0000
  O   O10       1.0  0.966285  0.019051000000000016  0.805142  1.0000
  O   O11       1.0  0.533715  0.019051000000000016  0.805142  1.0000
  O   O12       1.0  0.033715  0.9809489999999998  0.194858  1.0000
  O   O13       1.0  0.25  0.7580609999999999  0.431931  1.0000
  O   O14       1.0  0.7499999999999999  0.24193899999999993  0.568069  1.0000
  O   O15       1.0  0.25  0.05648399999999999  0.40332  1.0000
  O   O16       1.0  0.7499999999999999  0.943516  0.59668  1.0000
  O   O17       1.0  0.7499999999999999  0.6325859999999999  0.435123  1.0000
  O   O18       1.0  0.25  0.36741399999999996  0.564877  1.0000
