data_image0
_chemical_formula_structural       Al3Ni20B6
_chemical_formula_sum              "Al3 Ni20 B6"
_cell_length_a       7.339369488214087
_cell_length_b       7.339355076944053
_cell_length_c       7.339370209850645
_cell_angle_alpha    60.00404071220643
_cell_angle_beta     60.004115284576066
_cell_angle_gamma    60.00382991832857

_space_group_name_H-M_alt    "P 1"
_space_group_IT_number       1

loop_
  _space_group_symop_operation_xyz
  'x, y, z'

loop_
  _atom_site_type_symbol
  _atom_site_label
  _atom_site_symmetry_multiplicity
  _atom_site_fract_x
  _atom_site_fract_y
  _atom_site_fract_z
  _atom_site_occupancy
  Al  Al1       1.0  1.53e-06  0.99999959  2.2399999999999997e-06  1.0000
  Al  Al2       1.0  0.75000107  0.7500000300000002  0.75000474  1.0000
  Al  Al3       1.0  0.24999866  0.24999997000000002  0.24999521999999996  1.0000
  Ni  Ni1       1.0  0.9999974099999999  0.3383717900000001  0.6616661099999999  1.0000
  Ni  Ni2       1.0  0.99998215  0.999968  0.6615932  1.0000
  Ni  Ni3       1.0  0.6616458700000001  0.3383684599999999  1.8780000000059373e-05  1.0000
  Ni  Ni4       1.0  3.7050000000002466e-05  0.33833509  5.628000000003711e-05  1.0000
  Ni  Ni5       1.0  0.33836191000000004  0.99998184  0.6616918600000001  1.0000
  Ni  Ni6       1.0  0.33833076  1.8020000000008318e-05  5.711999999999168e-05  1.0000
  Ni  Ni7       1.0  0.66158848  0.9999778500000001  0.9999956799999999  1.0000
  Ni  Ni8       1.0  0.33834089  0.66166381  2.6279999999976397e-05  1.0000
  Ni  Ni9       1.0  0.66169919  0.99999739  0.33833969  1.0000
  Ni  Ni10      1.0  4.411999999997627e-05  2.4690000000023716e-05  0.33832577999999996  1.0000
  Ni  Ni11      1.0  0.99999846  0.66158494  1.6100000000575894e-06  1.0000
  Ni  Ni12      1.0  2.0479999999883384e-05  0.6616905600000001  0.33832176000000014  1.0000
  Ni  Ni13      1.0  0.6175706  0.14735604000000008  0.6175642999999998  1.0000
  Ni  Ni14      1.0  0.3824002199999998  0.3824206700000003  0.8526594799999998  1.0000
  Ni  Ni15      1.0  0.85265021  0.38242359000000004  0.3823875  1.0000
  Ni  Ni16      1.0  0.3824722  0.38250012000000005  0.38244017999999996  1.0000
  Ni  Ni17      1.0  0.14735733000000004  0.61757558  0.61755793  1.0000
  Ni  Ni18      1.0  0.61753068  0.6175360000000001  0.6175416299999998  1.0000
  Ni  Ni19      1.0  0.6175568400000001  0.61756838  0.14735548  1.0000
  Ni  Ni20      1.0  0.38241066  0.85264003  0.3823953200000001  1.0000
  B   B1        1.0  0.72607466  0.27392166  0.7260782499999999  1.0000
  B   B2        1.0  0.72608269  0.2739228600000001  0.27392192999999987  1.0000
  B   B3        1.0  0.27392196999999996  0.72607357  0.7260792600000001  1.0000
  B   B4        1.0  0.27392486  0.27392382000000004  0.72608252  1.0000
  B   B5        1.0  0.7260764000000001  0.72607438  0.27392195  1.0000
  B   B6        1.0  0.27392267  0.72608226  0.27392091000000013  1.0000
