data_image0
_chemical_formula_structural       Ho6Cu2Si2Se14
_chemical_formula_sum              "Ho6 Cu2 Si2 Se14"
_cell_length_a       10.306034644092412
_cell_length_b       10.306034644092412
_cell_length_c       6.033409
_cell_angle_alpha    90.0
_cell_angle_beta     90.0
_cell_angle_gamma    120.00000413474358

_space_group_name_H-M_alt    "P 1"
_space_group_IT_number       1

loop_
  _space_group_symop_operation_xyz
  'x, y, z'

loop_
  _atom_site_type_symbol
  _atom_site_label
  _atom_site_symmetry_multiplicity
  _atom_site_fract_x
  _atom_site_fract_y
  _atom_site_fract_z
  _atom_site_occupancy
  Ho  Ho1       1.0  0.777892  0.13407399999999994  0.229717  1.0000
  Ho  Ho2       1.0  0.643817  0.7778919999999999  0.729717  1.0000
  Ho  Ho3       1.0  0.134074  0.356183  0.729717  1.0000
  Ho  Ho4       1.0  0.865926  0.6438169999999999  0.229717  1.0000
  Ho  Ho5       1.0  0.3561830000000001  0.22210799999999997  0.229717  1.0000
  Ho  Ho6       1.0  0.22210799999999994  0.8659259999999999  0.729717  1.0000
  Cu  Cu1       1.0  0.0  0.0  0.177877  1.0000
  Cu  Cu2       1.0  0.0  0.0  0.677877  1.0000
  Si  Si1       1.0  0.666667  0.333333  0.819978  1.0000
  Si  Si2       1.0  0.333333  0.666667  0.31997799999999993  1.0000
  Se  Se1       1.0  0.422062  0.521367  0.4746909999999999  1.0000
  Se  Se2       1.0  0.478633  0.900694  0.4746909999999999  1.0000
  Se  Se3       1.0  0.09930600000000005  0.577938  0.4746909999999999  1.0000
  Se  Se4       1.0  0.8990449999999999  0.7375899999999997  0.694786  1.0000
  Se  Se5       1.0  0.666667  0.333333  0.442365  1.0000
  Se  Se6       1.0  0.900694  0.42206200000000005  0.9746909999999999  1.0000
  Se  Se7       1.0  0.8385450000000001  0.100955  0.694786  1.0000
  Se  Se8       1.0  0.577938  0.478633  0.9746909999999999  1.0000
  Se  Se9       1.0  0.10095500000000002  0.26241  0.194786  1.0000
  Se  Se10      1.0  0.521367  0.09930599999999995  0.9746909999999999  1.0000
  Se  Se11      1.0  0.26241  0.161455  0.694786  1.0000
  Se  Se12      1.0  0.333333  0.666667  0.942365  1.0000
  Se  Se13      1.0  0.16145500000000015  0.8990450000000001  0.194786  1.0000
  Se  Se14      1.0  0.7375899999999999  0.8385449999999999  0.194786  1.0000
