data_image0
_chemical_formula_structural       Cs4CdNi3F12
_chemical_formula_sum              "Cs4 Cd1 Ni3 F12"
_cell_length_a       10.78215611004464
_cell_length_b       10.78215611004464
_cell_length_c       10.782156741492678
_cell_angle_alpha    33.97782139170826
_cell_angle_beta     33.97782139170826
_cell_angle_gamma    33.97782520290466

_space_group_name_H-M_alt    "P 1"
_space_group_IT_number       1

loop_
  _space_group_symop_operation_xyz
  'x, y, z'

loop_
  _atom_site_type_symbol
  _atom_site_label
  _atom_site_symmetry_multiplicity
  _atom_site_fract_x
  _atom_site_fract_y
  _atom_site_fract_z
  _atom_site_occupancy
  Cs  Cs1       1.0  0.7149240000000002  0.714924  0.714924  1.0000
  Cs  Cs2       1.0  0.8698170000000001  0.8698170000000001  0.869817  1.0000
  Cs  Cs3       1.0  0.28507599999999994  0.28507599999999994  0.28507600000000005  1.0000
  Cs  Cs4       1.0  0.13018300000000002  0.13018299999999997  0.130183  1.0000
  Cd  Cd1       1.0  0.0  0.0  0.0  1.0000
  Ni  Ni1       1.0  0.41020700000000004  0.410207  0.410207  1.0000
  Ni  Ni2       1.0  0.5897929999999999  0.5897929999999999  0.5897930000000001  1.0000
  Ni  Ni3       1.0  0.49999999999999983  0.5  0.5  1.0000
  F   F1        1.0  0.17455300000000004  0.597133  0.597133  1.0000
  F   F2        1.0  0.5971330000000001  0.5971329999999999  0.17455300000000004  1.0000
  F   F3        1.0  0.6927099999999999  0.21629500000000004  0.21629500000000002  1.0000
  F   F4        1.0  0.3072900000000002  0.7837049999999997  0.7837050000000001  1.0000
  F   F5        1.0  0.21629499999999993  0.216295  0.6927100000000002  1.0000
  F   F6        1.0  0.8254470000000002  0.402867  0.402867  1.0000
  F   F7        1.0  0.7837050000000001  0.783705  0.30729  1.0000
  F   F8        1.0  0.40286700000000003  0.40286700000000003  0.825447  1.0000
  F   F9        1.0  0.40286700000000003  0.825447  0.402867  1.0000
  F   F10       1.0  0.21629500000000002  0.69271  0.21629500000000002  1.0000
  F   F11       1.0  0.7837050000000001  0.30728999999999984  0.7837050000000001  1.0000
  F   F12       1.0  0.5971329999999999  0.17455299999999996  0.597133  1.0000
