data_image0
_chemical_formula_structural       Th4P4O18
_chemical_formula_sum              "Th4 P4 O18"
_cell_length_a       5.862271850438174
_cell_length_b       5.862271850438174
_cell_length_c       12.91094078
_cell_angle_alpha    90.0
_cell_angle_beta     90.0
_cell_angle_gamma    104.15867642935412

_space_group_name_H-M_alt    "P 1"
_space_group_IT_number       1

loop_
  _space_group_symop_operation_xyz
  'x, y, z'

loop_
  _atom_site_type_symbol
  _atom_site_label
  _atom_site_symmetry_multiplicity
  _atom_site_fract_x
  _atom_site_fract_y
  _atom_site_fract_z
  _atom_site_occupancy
  Th  Th1       1.0  0.29235057999999997  0.70764942  0.57272868  1.0000
  Th  Th2       1.0  0.70764942  0.29235058  0.42727131999999995  1.0000
  Th  Th3       1.0  0.20764942  0.79235058  0.07272868  1.0000
  Th  Th4       1.0  0.79235058  0.20764942000000003  0.9272713199999999  1.0000
  P   P1        1.0  0.38905461  0.61094539  0.85936777  1.0000
  P   P2        1.0  0.11094538999999998  0.88905461  0.35936777  1.0000
  P   P3        1.0  0.6109453899999999  0.38905460999999997  0.14063223  1.0000
  P   P4        1.0  0.88905461  0.11094538999999998  0.6406322299999999  1.0000
  O   O1        1.0  0.05123620999999991  0.9487637899999999  0.6232546099999999  1.0000
  O   O2        1.0  0.98426967  0.34986852999999996  0.58443968  1.0000
  O   O3        1.0  0.14633872999999983  0.8536612699999999  0.24490574999999998  1.0000
  O   O4        1.0  0.48426966999999993  0.8498685299999998  0.9155603199999999  1.0000
  O   O5        1.0  0.65013147  0.01573033000000003  0.58443968  1.0000
  O   O6        1.0  0.44876379  0.55123621  0.12325460999999999  1.0000
  O   O7        1.0  0.84986853  0.48426966999999993  0.08443968  1.0000
  O   O8        1.0  0.6463387299999999  0.35366126999999997  0.25509425  1.0000
  O   O9        1.0  0.94876379  0.05123621000000003  0.37674539  1.0000
  O   O10       1.0  0.3498685299999999  0.9842696699999999  0.4155603199999999  1.0000
  O   O11       1.0  0.35366127  0.64633873  0.7449057499999999  1.0000
  O   O12       1.0  0.5157303299999999  0.15013147000000002  0.08443968  1.0000
  O   O13       1.0  0.5512362099999999  0.44876378999999994  0.87674539  1.0000
  O   O14       1.0  0.5  0.5  0.49999999999999994  1.0000
  O   O15       1.0  0.8536612699999999  0.14633873000000003  0.75509425  1.0000
  O   O16       1.0  0.15013147000000002  0.51573033  0.9155603199999999  1.0000
  O   O17       1.0  0.01573033  0.65013147  0.4155603199999999  1.0000
  O   O18       1.0  0.0  0.0  0.0  1.0000
