data_image0
_chemical_formula_structural       Li4Ta6N10
_chemical_formula_sum              "Li4 Ta6 N10"
_cell_length_a       5.341050742491921
_cell_length_b       5.341050742491921
_cell_length_c       9.639665803880842
_cell_angle_alpha    89.06470999136305
_cell_angle_beta     89.06470999136305
_cell_angle_gamma    46.32779780071618

_space_group_name_H-M_alt    "P 1"
_space_group_IT_number       1

loop_
  _space_group_symop_operation_xyz
  'x, y, z'

loop_
  _atom_site_type_symbol
  _atom_site_label
  _atom_site_symmetry_multiplicity
  _atom_site_fract_x
  _atom_site_fract_y
  _atom_site_fract_z
  _atom_site_occupancy
  Li  Li1       1.0  0.64674255  0.64674255  0.4515546700000001  1.0000
  Li  Li2       1.0  0.45724346  0.45724345999999993  0.84691838  1.0000
  Li  Li3       1.0  0.54275654  0.5427565399999998  0.15308162  1.0000
  Li  Li4       1.0  0.3532574499999999  0.35325745000000003  0.54844533  1.0000
  Ta  Ta1       1.0  0.05503708  0.05503708  0.64376625  1.0000
  Ta  Ta2       1.0  0.94496292  0.9449629200000002  0.35623375000000007  1.0000
  Ta  Ta3       1.0  0.7628544199999999  0.7628544200000001  0.7441326600000001  1.0000
  Ta  Ta4       1.0  0.23714558000000002  0.23714557999999994  0.25586734  1.0000
  Ta  Ta5       1.0  0.14217974  0.14217974  0.95278502  1.0000
  Ta  Ta6       1.0  0.85782026  0.85782026  0.04721498  1.0000
  N   N1        1.0  0.5682621400000002  0.5682621399999999  0.6557999  1.0000
  N   N2        1.0  0.43173786  0.43173786000000003  0.3442001  1.0000
  N   N3        1.0  0.8614847700000001  0.86148477  0.5535881500000001  1.0000
  N   N4        1.0  0.046384169999999995  0.04638417000000001  0.15375598  1.0000
  N   N5        1.0  0.9536158299999999  0.95361583  0.84624402  1.0000
  N   N6        1.0  0.13851523  0.13851523  0.44641185000000005  1.0000
  N   N7        1.0  0.34565981  0.34565981  0.04959614  1.0000
  N   N8        1.0  0.65434019  0.65434019  0.95040386  1.0000
  N   N9        1.0  0.75005634  0.7500563399999999  0.25071419  1.0000
  N   N10       1.0  0.24994366  0.24994366  0.7492858100000002  1.0000
