data_image0
_chemical_formula_structural       Rh8Se12
_chemical_formula_sum              "Rh8 Se12"
_cell_length_a       6.33474731
_cell_length_b       6.46889082
_cell_length_c       8.9587013
_cell_angle_alpha    90.0
_cell_angle_beta     90.0
_cell_angle_gamma    90.0

_space_group_name_H-M_alt    "P 1"
_space_group_IT_number       1

loop_
  _space_group_symop_operation_xyz
  'x, y, z'

loop_
  _atom_site_type_symbol
  _atom_site_label
  _atom_site_symmetry_multiplicity
  _atom_site_fract_x
  _atom_site_fract_y
  _atom_site_fract_z
  _atom_site_occupancy
  Rh  Rh1       1.0  0.74806921  0.53317755  0.10666006  1.0000
  Rh  Rh2       1.0  0.75193079  0.03317755  0.39333994  1.0000
  Rh  Rh3       1.0  0.75193079  0.46682245  0.60666006  1.0000
  Rh  Rh4       1.0  0.74806921  0.9668224500000001  0.89333994  1.0000
  Rh  Rh5       1.0  0.25193079  0.46682245  0.89333994  1.0000
  Rh  Rh6       1.0  0.24806920999999998  0.9668224500000001  0.60666006  1.0000
  Rh  Rh7       1.0  0.24806920999999998  0.53317755  0.39333994  1.0000
  Rh  Rh8       1.0  0.25193079  0.03317755  0.10666006  1.0000
  Se  Se1       1.0  0.60973183  0.89456363  0.15123514  1.0000
  Se  Se2       1.0  0.89026817  0.39456363  0.34876486  1.0000
  Se  Se3       1.0  0.89026817  0.10543637000000002  0.65123514  1.0000
  Se  Se4       1.0  0.60973183  0.60543637  0.84876486  1.0000
  Se  Se5       1.0  0.39026817  0.10543637000000002  0.84876486  1.0000
  Se  Se6       1.0  0.10973183  0.60543637  0.65123514  1.0000
  Se  Se7       1.0  0.10973183  0.89456363  0.34876486  1.0000
  Se  Se8       1.0  0.39026817  0.39456363  0.15123514  1.0000
  Se  Se9       1.0  0.0466571  0.7500000000000001  0.0  1.0000
  Se  Se10      1.0  0.45334289999999994  0.25  0.5  1.0000
  Se  Se11      1.0  0.9533429  0.25  0.0  1.0000
  Se  Se12      1.0  0.5466571  0.7500000000000001  0.5  1.0000
