data_image0
_chemical_formula_structural       Er2Ag2W4O16
_chemical_formula_sum              "Er2 Ag2 W4 O16"
_cell_length_a       7.378009700115675
_cell_length_b       7.378009700115675
_cell_length_c       7.279004163802217
_cell_angle_alpha    65.8955222999013
_cell_angle_beta     65.8955222999013
_cell_angle_gamma    94.60728295195929

_space_group_name_H-M_alt    "P 1"
_space_group_IT_number       1

loop_
  _space_group_symop_operation_xyz
  'x, y, z'

loop_
  _atom_site_type_symbol
  _atom_site_label
  _atom_site_symmetry_multiplicity
  _atom_site_fract_x
  _atom_site_fract_y
  _atom_site_fract_z
  _atom_site_occupancy
  Er  Er1       1.0  0.30096799999999996  0.699032  0.0  1.0000
  Er  Er2       1.0  0.699032  0.300968  0.0  1.0000
  Ag  Ag1       1.0  0.6813759999999999  0.6813759999999999  0.478115  1.0000
  Ag  Ag2       1.0  0.318624  0.318624  0.521885  1.0000
  W   W1        1.0  0.787439  0.787439  0.971895  1.0000
  W   W2        1.0  0.212561  0.212561  0.028105  1.0000
  W   W3        1.0  0.836477  0.16352300000000008  0.49999999999999994  1.0000
  W   W4        1.0  0.16352299999999986  0.8364769999999999  0.49999999999999994  1.0000
  O   O1        1.0  0.02186700000000001  0.021867000000000015  0.659056  1.0000
  O   O2        1.0  0.9781329999999998  0.9781329999999999  0.34094399999999997  1.0000
  O   O3        1.0  0.959718  0.699526  0.08936899999999999  1.0000
  O   O4        1.0  0.30047399999999996  0.040281999999999984  0.910631  1.0000
  O   O5        1.0  0.04028199999999993  0.30047399999999996  0.910631  1.0000
  O   O6        1.0  0.699526  0.9597180000000001  0.08936899999999999  1.0000
  O   O7        1.0  0.44688900000000004  0.44688900000000004  0.86039  1.0000
  O   O8        1.0  0.553111  0.553111  0.13961  1.0000
  O   O9        1.0  0.35546600000000006  0.10366900000000004  0.239706  1.0000
  O   O10       1.0  0.8963309999999999  0.644534  0.760294  1.0000
  O   O11       1.0  0.6445339999999999  0.8963309999999999  0.760294  1.0000
  O   O12       1.0  0.103669  0.355466  0.239706  1.0000
  O   O13       1.0  0.68802  0.21702800000000005  0.34788199999999997  1.0000
  O   O14       1.0  0.782972  0.31198  0.652118  1.0000
  O   O15       1.0  0.3119799999999999  0.7829719999999999  0.652118  1.0000
  O   O16       1.0  0.21702800000000005  0.68802  0.34788199999999997  1.0000
