data_image0
_chemical_formula_structural       Au4Se6O20
_chemical_formula_sum              "Au4 Se6 O20"
_cell_length_a       9.030556904676079
_cell_length_b       9.030556904676079
_cell_length_c       8.42045693
_cell_angle_alpha    90.0
_cell_angle_beta     90.0
_cell_angle_gamma    139.02506344734059

_space_group_name_H-M_alt    "P 1"
_space_group_IT_number       1

loop_
  _space_group_symop_operation_xyz
  'x, y, z'

loop_
  _atom_site_type_symbol
  _atom_site_label
  _atom_site_symmetry_multiplicity
  _atom_site_fract_x
  _atom_site_fract_y
  _atom_site_fract_z
  _atom_site_occupancy
  Au  Au1       1.0  0.3650035299999999  0.6839904999999998  0.1832225  1.0000
  Au  Au2       1.0  0.6349964699999999  0.3160094999999999  0.6832225  1.0000
  Au  Au3       1.0  0.3160095  0.63499647  0.6832225  1.0000
  Au  Au4       1.0  0.6839905  0.36500352999999996  0.1832225  1.0000
  Se  Se1       1.0  0.35723025999999997  0.35723025999999997  0.03387054  1.0000
  Se  Se2       1.0  0.12789845999999985  0.8051756199999999  0.8031197000000001  1.0000
  Se  Se3       1.0  0.19482437999999982  0.8721015399999998  0.3031197  1.0000
  Se  Se4       1.0  0.6427697399999999  0.6427697399999999  0.53387054  1.0000
  Se  Se5       1.0  0.80517562  0.12789846  0.8031197000000001  1.0000
  Se  Se6       1.0  0.87210154  0.19482437999999994  0.3031197  1.0000
  O   O1        1.0  0.008724809999999921  0.3149909699999999  0.66225106  1.0000
  O   O2        1.0  0.7184237799999998  0.23862188999999998  0.85812461  1.0000
  O   O3        1.0  0.9548534199999998  0.6161566499999999  0.64886102  1.0000
  O   O4        1.0  0.26406689999999994  0.26406689999999994  0.21336162  1.0000
  O   O5        1.0  0.3937864599999999  0.5516705199999999  0.50876659  1.0000
  O   O6        1.0  0.6161566499999999  0.9548534199999998  0.64886102  1.0000
  O   O7        1.0  0.8015378899999998  0.8015378899999998  0.38317887000000006  1.0000
  O   O8        1.0  0.31499097  0.008724809999999986  0.66225106  1.0000
  O   O9        1.0  0.5516705199999999  0.39378645999999995  0.50876659  1.0000
  O   O10       1.0  0.2386218899999998  0.7184237799999997  0.85812461  1.0000
  O   O11       1.0  0.6850090299999998  0.9912751899999998  0.16225106  1.0000
  O   O12       1.0  0.7613781099999999  0.28157621999999993  0.35812461  1.0000
  O   O13       1.0  0.0451465799999999  0.3838433499999999  0.14886102  1.0000
  O   O14       1.0  0.38384334999999997  0.04514657999999996  0.14886102  1.0000
  O   O15       1.0  0.7359330999999998  0.7359330999999998  0.71336162  1.0000
  O   O16       1.0  0.19846210999999997  0.19846210999999997  0.88317887  1.0000
  O   O17       1.0  0.28157621999999993  0.7613781099999999  0.35812461  1.0000
  O   O18       1.0  0.6062135399999999  0.44832947999999995  0.00876659  1.0000
  O   O19       1.0  0.9912751899999999  0.68500903  0.16225106  1.0000
  O   O20       1.0  0.4483294799999999  0.6062135399999999  0.00876659  1.0000
