data_image0
_chemical_formula_structural       Pr4Co6Ge10
_chemical_formula_sum              "Pr4 Co6 Ge10"
_cell_length_a       8.258833585610562
_cell_length_b       8.258833585610562
_cell_length_c       5.896514835057231
_cell_angle_alpha    69.6638814339545
_cell_angle_beta     69.6638814339545
_cell_angle_gamma    92.95281876873206

_space_group_name_H-M_alt    "P 1"
_space_group_IT_number       1

loop_
  _space_group_symop_operation_xyz
  'x, y, z'

loop_
  _atom_site_type_symbol
  _atom_site_label
  _atom_site_symmetry_multiplicity
  _atom_site_fract_x
  _atom_site_fract_y
  _atom_site_fract_z
  _atom_site_occupancy
  Pr  Pr1       1.0  0.8711920000000001  0.5980820000000001  0.765226  1.0000
  Pr  Pr2       1.0  0.40191800000000005  0.1288080000000001  0.734774  1.0000
  Pr  Pr3       1.0  0.128808  0.401918  0.23477400000000004  1.0000
  Pr  Pr4       1.0  0.598082  0.8711919999999999  0.265226  1.0000
  Co  Co1       1.0  0.260163  0.536077  0.614304  1.0000
  Co  Co2       1.0  0.4639229999999999  0.7398369999999999  0.885696  1.0000
  Co  Co3       1.0  0.739837  0.463923  0.385696  1.0000
  Co  Co4       1.0  0.536077  0.26016300000000003  0.114304  1.0000
  Co  Co5       1.0  0.0026339999999999836  0.997366  0.75  1.0000
  Co  Co6       1.0  0.997365  0.002635000000000102  0.25  1.0000
  Ge  Ge1       1.0  0.06711199999999995  0.25754699999999997  0.834842  1.0000
  Ge  Ge2       1.0  0.7424529999999999  0.9328879999999999  0.665158  1.0000
  Ge  Ge3       1.0  0.9328880000000003  0.7424530000000001  0.165158  1.0000
  Ge  Ge4       1.0  0.257547  0.06711200000000002  0.334842  1.0000
  Ge  Ge5       1.0  0.22277100000000005  0.777229  0.75  1.0000
  Ge  Ge6       1.0  0.777229  0.22277100000000002  0.25  1.0000
  Ge  Ge7       1.0  0.5052  0.4948  0.75  1.0000
  Ge  Ge8       1.0  0.4948  0.5052  0.25  1.0000
  Ge  Ge9       1.0  0.7690740000000001  0.2309260000000001  0.75  1.0000
  Ge  Ge10      1.0  0.2309259999999999  0.7690739999999999  0.25  1.0000
