data_image0
_chemical_formula_structural       Ag2Pd2I6O18
_chemical_formula_sum              "Ag2 Pd2 I6 O18"
_cell_length_a       7.473371496452187
_cell_length_b       8.196688592493556
_cell_length_c       8.787439175831375
_cell_angle_alpha    62.867233884647135
_cell_angle_beta     76.42233297222505
_cell_angle_gamma    82.2271854653667

_space_group_name_H-M_alt    "P 1"
_space_group_IT_number       1

loop_
  _space_group_symop_operation_xyz
  'x, y, z'

loop_
  _atom_site_type_symbol
  _atom_site_label
  _atom_site_symmetry_multiplicity
  _atom_site_fract_x
  _atom_site_fract_y
  _atom_site_fract_z
  _atom_site_occupancy
  Ag  Ag1       1.0  0.31816199999999994  0.174134  0.161387  1.0000
  Ag  Ag2       1.0  0.6818379999999999  0.8258659999999999  0.838613  1.0000
  Pd  Pd1       1.0  0.0  0.0  0.5  1.0000
  Pd  Pd2       1.0  0.0  0.0  0.0  1.0000
  I   I1        1.0  0.278857  0.20601000000000003  0.6025689999999999  1.0000
  I   I2        1.0  0.721143  0.79399  0.3974309999999999  1.0000
  I   I3        1.0  0.251274  0.645424  0.767013  1.0000
  I   I4        1.0  0.7487259999999999  0.35457600000000006  0.23298700000000003  1.0000
  I   I5        1.0  0.69431  0.2834769999999999  0.7856509999999999  1.0000
  I   I6        1.0  0.30568999999999996  0.716523  0.21434900000000004  1.0000
  O   O1        1.0  0.13966299999999998  0.22272799999999998  0.44282699999999997  1.0000
  O   O2        1.0  0.8603369999999999  0.777272  0.557173  1.0000
  O   O3        1.0  0.07828599999999998  0.221897  0.7718369999999999  1.0000
  O   O4        1.0  0.9217139999999999  0.7781030000000001  0.22816299999999998  1.0000
  O   O5        1.0  0.315744  0.44833000000000006  0.507724  1.0000
  O   O6        1.0  0.6842559999999999  0.55167  0.4922759999999998  1.0000
  O   O7        1.0  0.09076799999999999  0.857914  0.7297589999999999  1.0000
  O   O8        1.0  0.9092319999999999  0.142086  0.270241  1.0000
  O   O9        1.0  0.215265  0.559832  0.0009950000000000152  1.0000
  O   O10       1.0  0.7847349999999998  0.440168  0.9990049999999999  1.0000
  O   O11       1.0  0.4688399999999999  0.767169  0.685623  1.0000
  O   O12       1.0  0.53116  0.23283099999999998  0.31437699999999996  1.0000
  O   O13       1.0  0.728411  0.067023  0.9867399999999998  1.0000
  O   O14       1.0  0.271589  0.9329770000000001  0.013259999999999949  1.0000
  O   O15       1.0  0.669939  0.163626  0.6591709999999998  1.0000
  O   O16       1.0  0.330061  0.836374  0.340829  1.0000
  O   O17       1.0  0.44917399999999996  0.3234369999999999  0.862995  1.0000
  O   O18       1.0  0.550826  0.676563  0.137005  1.0000
