data_image0
_chemical_formula_structural       Na4Ga8Au16
_chemical_formula_sum              "Na4 Ga8 Au16"
_cell_length_a       7.528632
_cell_length_b       8.47506
_cell_length_c       9.378144100288765
_cell_angle_alpha    64.25038139541225
_cell_angle_beta     90.0
_cell_angle_gamma    90.0

_space_group_name_H-M_alt    "P 1"
_space_group_IT_number       1

loop_
  _space_group_symop_operation_xyz
  'x, y, z'

loop_
  _atom_site_type_symbol
  _atom_site_label
  _atom_site_symmetry_multiplicity
  _atom_site_fract_x
  _atom_site_fract_y
  _atom_site_fract_z
  _atom_site_occupancy
  Na  Na1       1.0  0.044895  0.211227  0.324525  1.0000
  Na  Na2       1.0  0.5448950000000001  0.7887730000000001  0.175475  1.0000
  Na  Na3       1.0  0.955105  0.788773  0.675475  1.0000
  Na  Na4       1.0  0.45510500000000004  0.21122700000000005  0.824525  1.0000
  Ga  Ga1       1.0  0.17535300000000004  0.516293  0.58495  1.0000
  Ga  Ga2       1.0  0.675353  0.4837070000000001  0.91505  1.0000
  Ga  Ga3       1.0  0.8246470000000001  0.483707  0.41505  1.0000
  Ga  Ga4       1.0  0.3246470000000001  0.516293  0.08495  1.0000
  Ga  Ga5       1.0  0.8685630000000001  0.996674  0.887927  1.0000
  Ga  Ga6       1.0  0.36856300000000003  0.0033260000000000247  0.612073  1.0000
  Ga  Ga7       1.0  0.13143700000000003  0.0033259999999999987  0.112073  1.0000
  Ga  Ga8       1.0  0.631437  0.996674  0.387927  1.0000
  Au  Au1       1.0  0.103037  0.175476  0.656545  1.0000
  Au  Au2       1.0  0.603037  0.824524  0.843455  1.0000
  Au  Au3       1.0  0.8969630000000001  0.8245240000000001  0.343455  1.0000
  Au  Au4       1.0  0.39696300000000007  0.175476  0.156545  1.0000
  Au  Au5       1.0  0.21570800000000004  0.8555440000000001  0.921571  1.0000
  Au  Au6       1.0  0.7157080000000001  0.14445599999999997  0.578429  1.0000
  Au  Au7       1.0  0.784292  0.14445599999999997  0.07842900000000001  1.0000
  Au  Au8       1.0  0.284292  0.855544  0.421571  1.0000
  Au  Au9       1.0  0.395436  0.36562999999999996  0.454577  1.0000
  Au  Au10      1.0  0.8954360000000001  0.63437  0.045423  1.0000
  Au  Au11      1.0  0.604564  0.63437  0.545423  1.0000
  Au  Au12      1.0  0.10456400000000002  0.36563  0.954577  1.0000
  Au  Au13      1.0  0.846185  0.371326  0.73386  1.0000
  Au  Au14      1.0  0.346185  0.6286739999999998  0.76614  1.0000
  Au  Au15      1.0  0.15381500000000004  0.628674  0.26614  1.0000
  Au  Au16      1.0  0.6538150000000001  0.37132600000000004  0.23386  1.0000
