data_image0
_chemical_formula_structural       Mg6Mn2H14
_chemical_formula_sum              "Mg6 Mn2 H14"
_cell_length_a       4.642505614655183
_cell_length_b       4.6425057029549235
_cell_length_c       10.188759540000094
_cell_angle_alpha    89.99998989869047
_cell_angle_beta     89.99999480206098
_cell_angle_gamma    120.00334105732466

_space_group_name_H-M_alt    "P 1"
_space_group_IT_number       1

loop_
  _space_group_symop_operation_xyz
  'x, y, z'

loop_
  _atom_site_type_symbol
  _atom_site_label
  _atom_site_symmetry_multiplicity
  _atom_site_fract_x
  _atom_site_fract_y
  _atom_site_fract_z
  _atom_site_occupancy
  Mg  Mg1       1.0  0.99999999  0.99999965  0.24999971000000004  1.0000
  Mg  Mg2       1.0  2.6e-07  3.5e-07  0.75000031  1.0000
  Mg  Mg3       1.0  0.33334035  0.66666017  0.43430489  1.0000
  Mg  Mg4       1.0  0.6666595299999999  0.33334041999999997  0.56569438  1.0000
  Mg  Mg5       1.0  0.66665872  0.33333974999999993  0.9343070100000003  1.0000
  Mg  Mg6       1.0  0.33333994  0.6666588  0.06569382  1.0000
  Mn  Mn1       1.0  0.9999955  0.99999582  0.50000212  1.0000
  Mn  Mn2       1.0  0.99999709  1.5100000000000002e-06  0.99999764  1.0000
  H   H1        1.0  0.16349947000000004  0.83650026  0.90687125  1.0000
  H   H2        1.0  0.16350216000000006  0.32700327000000007  0.9068686700000002  1.0000
  H   H3        1.0  0.6729965800000001  0.83649754  0.9068687100000001  1.0000
  H   H4        1.0  0.83650127  0.16349824000000004  0.09312875000000001  1.0000
  H   H5        1.0  0.83649631  0.6729928799999999  0.09313259  1.0000
  H   H6        1.0  0.32700678000000005  0.16350347000000004  0.09313258000000002  1.0000
  H   H7        1.0  0.83649992  0.16350082  0.40687024000000005  1.0000
  H   H8        1.0  0.8364965100000002  0.6729937800000001  0.40686792000000005  1.0000
  H   H9        1.0  0.3270098699999999  0.16350553999999995  0.40686707  1.0000
  H   H10       1.0  0.16349987000000005  0.8365007500000001  0.59312901  1.0000
  H   H11       1.0  0.16350457  0.32700846  0.5931319600000001  1.0000
  H   H12       1.0  0.67299525  0.83649748  0.5931313500000001  1.0000
  H   H13       1.0  0.33333376000000003  0.66666627  0.25000173000000003  1.0000
  H   H14       1.0  0.6666663000000002  0.33333376000000003  0.7499982800000001  1.0000
