data_image0
_chemical_formula_structural       Tb2Ni12As7
_chemical_formula_sum              "Tb2 Ni12 As7"
_cell_length_a       9.29204738615592
_cell_length_b       9.291783348691117
_cell_length_c       3.810344550000001
_cell_angle_alpha    89.99999840497615
_cell_angle_beta     89.99999903538797
_cell_angle_gamma    119.99374032020812

_space_group_name_H-M_alt    "P 1"
_space_group_IT_number       1

loop_
  _space_group_symop_operation_xyz
  'x, y, z'

loop_
  _atom_site_type_symbol
  _atom_site_label
  _atom_site_symmetry_multiplicity
  _atom_site_fract_x
  _atom_site_fract_y
  _atom_site_fract_z
  _atom_site_occupancy
  Tb  Tb1       1.0  0.66662567  0.33328142000000005  9.999999999999997e-09  1.0000
  Tb  Tb2       1.0  9.355e-05  0.00011781  0.5  1.0000
  Ni  Ni1       1.0  0.70949464  0.09256495  0.50000019  1.0000
  Ni  Ni2       1.0  0.9075594  0.61687808  0.49999989  1.0000
  Ni  Ni3       1.0  0.3830095499999999  0.2905691799999999  0.50000008  1.0000
  Ni  Ni4       1.0  0.7696543599999999  0.7256092299999999  3.8e-07  1.0000
  Ni  Ni5       1.0  0.27443971  0.04407194000000001  1.5e-07  1.0000
  Ni  Ni6       1.0  0.9560426399999999  0.23038329  0.99999989  1.0000
  Ni  Ni7       1.0  0.54333416  0.76242113  0.50000005  1.0000
  Ni  Ni8       1.0  0.23765147000000017  0.7809972400000001  0.4999996500000001  1.0000
  Ni  Ni9       1.0  0.21895960000000003  0.4565809800000001  0.4999998  1.0000
  Ni  Ni10      1.0  0.4830329499999999  0.9452445699999998  0.99999995  1.0000
  Ni  Ni11      1.0  0.05478622000000002  0.53773003  0.99999993  1.0000
  Ni  Ni12      1.0  0.46197701  0.51685545  8e-08  1.0000
  As  As1       1.0  0.33327264  0.66664293  0.99999984  1.0000
  As  As2       1.0  0.44068428999999987  0.07239657999999996  0.49999993000000004  1.0000
  As  As3       1.0  0.92759009  0.36822744999999996  0.50000002  1.0000
  As  As4       1.0  0.6317056  0.55930286  0.50000022  1.0000
  As  As5       1.0  0.7374189900000001  0.9569657400000001  2.2999999999999997e-07  1.0000
  As  As6       1.0  0.043133919999999965  0.78053335  0.99999968  1.0000
  As  As7       1.0  0.21953454999999994  0.26262475999999996  3.0000000000000004e-08  1.0000
