data_image0
_chemical_formula_structural       Na2La4Os2O12
_chemical_formula_sum              "Na2 La4 Os2 O12"
_cell_length_a       6.026786
_cell_length_b       5.654981
_cell_length_c       9.846344678895868
_cell_angle_alpha    55.64403632763281
_cell_angle_beta     90.0
_cell_angle_gamma    90.0

_space_group_name_H-M_alt    "P 1"
_space_group_IT_number       1

loop_
  _space_group_symop_operation_xyz
  'x, y, z'

loop_
  _atom_site_type_symbol
  _atom_site_label
  _atom_site_symmetry_multiplicity
  _atom_site_fract_x
  _atom_site_fract_y
  _atom_site_fract_z
  _atom_site_occupancy
  Na  Na1       1.0  0.5  0.0  0.5  1.0000
  Na  Na2       1.0  0.0  0.0  0.0  1.0000
  La  La1       1.0  0.066519  0.7719529999999999  0.746608  1.0000
  La  La2       1.0  0.5665190000000001  0.22804699999999983  0.7533920000000001  1.0000
  La  La3       1.0  0.433481  0.771953  0.246608  1.0000
  La  La4       1.0  0.933481  0.22804699999999997  0.25339200000000006  1.0000
  Os  Os1       1.0  0.5  0.5  0.0  1.0000
  Os  Os2       1.0  0.0  0.49999999999999994  0.5  1.0000
  O   O1        1.0  0.7217160000000001  0.733598  0.43196100000000004  1.0000
  O   O2        1.0  0.22171600000000002  0.266402  0.068039  1.0000
  O   O3        1.0  0.27828400000000003  0.26640199999999997  0.568039  1.0000
  O   O4        1.0  0.7782840000000001  0.733598  0.9319610000000002  1.0000
  O   O5        1.0  0.04975500000000001  0.6134199999999999  0.27057700000000007  1.0000
  O   O6        1.0  0.549755  0.38658000000000003  0.22942300000000002  1.0000
  O   O7        1.0  0.9502450000000001  0.3865799999999999  0.7294230000000002  1.0000
  O   O8        1.0  0.45024500000000006  0.6134200000000001  0.770577  1.0000
  O   O9        1.0  0.32615500000000003  0.8402339999999998  0.9490330000000001  1.0000
  O   O10       1.0  0.8261550000000001  0.15976600000000002  0.550967  1.0000
  O   O11       1.0  0.6738450000000001  0.159766  0.050967  1.0000
  O   O12       1.0  0.173845  0.8402339999999999  0.44903300000000007  1.0000
