data_image0
_chemical_formula_structural       Na4C4O12
_chemical_formula_sum              "Na4 C4 O12"
_cell_length_a       9.15164117
_cell_length_b       3.4606159264237277
_cell_length_c       8.213215058308272
_cell_angle_alpha    71.88998345635422
_cell_angle_beta     90.0
_cell_angle_gamma    90.0

_space_group_name_H-M_alt    "P 1"
_space_group_IT_number       1

loop_
  _space_group_symop_operation_xyz
  'x, y, z'

loop_
  _atom_site_type_symbol
  _atom_site_label
  _atom_site_symmetry_multiplicity
  _atom_site_fract_x
  _atom_site_fract_y
  _atom_site_fract_z
  _atom_site_occupancy
  Na  Na1       1.0  0.50078977  0.57715711  0.20021085  1.0000
  Na  Na2       1.0  0.00078977  0.42284289  0.29978915  1.0000
  Na  Na3       1.0  0.49921023000000003  0.42284289000000014  0.7997891499999998  1.0000
  Na  Na4       1.0  0.9992102300000001  0.5771571100000001  0.70021085  1.0000
  C   C1        1.0  0.7272571900000001  0.8037203900000002  0.43997054  1.0000
  C   C2        1.0  0.22725719000000003  0.19627961  0.06002946  1.0000
  C   C3        1.0  0.27274281  0.19627961  0.56002946  1.0000
  C   C4        1.0  0.77274281  0.80372039  0.9399705399999999  1.0000
  O   O1        1.0  0.8649779500000001  0.82419855  0.43637426  1.0000
  O   O2        1.0  0.36497795  0.17580145000000003  0.06362574  1.0000
  O   O3        1.0  0.13502205  0.17580145  0.5636257400000001  1.0000
  O   O4        1.0  0.63502205  0.82419855  0.93637426  1.0000
  O   O5        1.0  0.6441683000000001  0.99861027  0.31687015  1.0000
  O   O6        1.0  0.1441683  0.001389730000000003  0.18312985  1.0000
  O   O7        1.0  0.3558317  0.0013897300000000191  0.68312985  1.0000
  O   O8        1.0  0.8558317  0.99861027  0.81687015  1.0000
  O   O9        1.0  0.6582423  0.5742334500000001  0.56944684  1.0000
  O   O10       1.0  0.1582423  0.42576655  0.93055316  1.0000
  O   O11       1.0  0.3417577  0.42576655  0.43055316  1.0000
  O   O12       1.0  0.8417577  0.57423345  0.06944684  1.0000
