data_image0
_chemical_formula_structural       Sm2CuTe2S2O14
_chemical_formula_sum              "Sm2 Cu1 Te2 S2 O14"
_cell_length_a       5.254212969593543
_cell_length_b       8.079227066591766
_cell_length_c       8.342606939458072
_cell_angle_alpha    62.048575511026804
_cell_angle_beta     74.25689265184043
_cell_angle_gamma    85.50152944490478

_space_group_name_H-M_alt    "P 1"
_space_group_IT_number       1

loop_
  _space_group_symop_operation_xyz
  'x, y, z'

loop_
  _atom_site_type_symbol
  _atom_site_label
  _atom_site_symmetry_multiplicity
  _atom_site_fract_x
  _atom_site_fract_y
  _atom_site_fract_z
  _atom_site_occupancy
  Sm  Sm1       1.0  0.9257969999999999  0.7497639999999999  0.9827720000000002  1.0000
  Sm  Sm2       1.0  0.074203  0.25023600000000007  0.01722799999999998  1.0000
  Cu  Cu1       1.0  0.0  0.0  0.5  1.0000
  Te  Te1       1.0  0.48825299999999994  0.73187  0.6515299999999999  1.0000
  Te  Te2       1.0  0.511747  0.26813  0.34847000000000006  1.0000
  S   S1        1.0  0.24966099999999997  0.746582  0.25402300000000005  1.0000
  S   S2        1.0  0.750339  0.253418  0.745977  1.0000
  O   O1        1.0  0.139951  0.587087  0.244919  1.0000
  O   O2        1.0  0.8600489999999998  0.412913  0.755081  1.0000
  O   O3        1.0  0.135504  0.7482200000000001  0.43395599999999995  1.0000
  O   O4        1.0  0.864496  0.25178000000000006  0.566044  1.0000
  O   O5        1.0  0.542287  0.738206  0.21899900000000005  1.0000
  O   O6        1.0  0.457713  0.261794  0.7810009999999997  1.0000
  O   O7        1.0  0.176277  0.9188140000000001  0.09553099999999996  1.0000
  O   O8        1.0  0.823723  0.08118600000000001  0.904469  1.0000
  O   O9        1.0  0.256366  0.563591  0.886604  1.0000
  O   O10       1.0  0.743634  0.436409  0.11339599999999993  1.0000
  O   O11       1.0  0.729498  0.8143690000000001  0.738568  1.0000
  O   O12       1.0  0.270502  0.18563100000000002  0.26143199999999994  1.0000
  O   O13       1.0  0.249918  0.927269  0.654279  1.0000
  O   O14       1.0  0.750082  0.072731  0.34572100000000006  1.0000
