data_image0
_chemical_formula_structural       Ba4Na2Ni6O12
_chemical_formula_sum              "Ba4 Na2 Ni6 O12"
_cell_length_a       9.324116610218312
_cell_length_b       8.447802483808083
_cell_length_c       7.033953713377207
_cell_angle_alpha    73.42480728923708
_cell_angle_beta     60.26953490314637
_cell_angle_gamma    46.305657807616534

_space_group_name_H-M_alt    "P 1"
_space_group_IT_number       1

loop_
  _space_group_symop_operation_xyz
  'x, y, z'

loop_
  _atom_site_type_symbol
  _atom_site_label
  _atom_site_symmetry_multiplicity
  _atom_site_fract_x
  _atom_site_fract_y
  _atom_site_fract_z
  _atom_site_occupancy
  Ba  Ba1       1.0  0.2500000000000001  0.24999999999999992  0.24999999999999997  1.0000
  Ba  Ba2       1.0  0.75  0.7500000000000001  0.7499999999999999  1.0000
  Ba  Ba3       1.0  0.7650610000000001  0.23493899999999987  0.765061  1.0000
  Ba  Ba4       1.0  0.23493900000000012  0.7650609999999999  0.23493900000000006  1.0000
  Na  Na1       1.0  0.33595499999999995  0.33595500000000006  0.664045  1.0000
  Na  Na2       1.0  0.664045  0.664045  0.335955  1.0000
  Ni  Ni1       1.0  0.28781000000000007  0.0022169999999999018  0.71219  1.0000
  Ni  Ni2       1.0  0.9977830000000001  0.71219  0.002216999999999975  1.0000
  Ni  Ni3       1.0  0.0022170000000001043  0.2878099999999999  0.997783  1.0000
  Ni  Ni4       1.0  0.7121899999999999  0.997783  0.2878100000000002  1.0000
  Ni  Ni5       1.0  0.7005820000000001  0.2994179999999999  0.29941799999999996  1.0000
  Ni  Ni6       1.0  0.2994180000000002  0.7005819999999998  0.7005819999999999  1.0000
  O   O1        1.0  0.701308  0.48747099999999993  0.07798600000000007  1.0000
  O   O2        1.0  0.7332350000000001  0.07798599999999987  0.4874709999999999  1.0000
  O   O3        1.0  0.07798600000000024  0.7332349999999997  0.7013079999999999  1.0000
  O   O4        1.0  0.48747100000000015  0.7013079999999998  0.7332349999999999  1.0000
  O   O5        1.0  0.29869199999999996  0.5125290000000001  0.9220139999999999  1.0000
  O   O6        1.0  0.2667650000000002  0.9220139999999998  0.512529  1.0000
  O   O7        1.0  0.304887  0.081507  0.918493  1.0000
  O   O8        1.0  0.5125289999999999  0.298692  0.266765  1.0000
  O   O9        1.0  0.08150700000000008  0.30488699999999996  0.6951129999999999  1.0000
  O   O10       1.0  0.918493  0.695113  0.304887  1.0000
  O   O11       1.0  0.695113  0.918493  0.08150699999999998  1.0000
  O   O12       1.0  0.9220140000000001  0.2667649999999999  0.29869199999999996  1.0000
