data_image0
_chemical_formula_structural       Mn2Nb6S12
_chemical_formula_sum              "Mn2 Nb6 S12"
_cell_length_a       5.842614710431021
_cell_length_b       5.842614696770763
_cell_length_c       12.565135180000006
_cell_angle_alpha    90.00000156812166
_cell_angle_beta     89.99999970425743
_cell_angle_gamma    119.99980493494627

_space_group_name_H-M_alt    "P 1"
_space_group_IT_number       1

loop_
  _space_group_symop_operation_xyz
  'x, y, z'

loop_
  _atom_site_type_symbol
  _atom_site_label
  _atom_site_symmetry_multiplicity
  _atom_site_fract_x
  _atom_site_fract_y
  _atom_site_fract_z
  _atom_site_occupancy
  Mn  Mn1       1.0  0.66666723  0.33333307  0.75003146  1.0000
  Mn  Mn2       1.0  0.33333285  0.66666724  0.24996886999999998  1.0000
  Nb  Nb1       1.0  0.33333248999999987  0.6666658299999999  0.50118172  1.0000
  Nb  Nb2       1.0  0.6666674  0.33333426  0.00114531  1.0000
  Nb  Nb3       1.0  0.66666575  0.33333249000000004  0.49884697  1.0000
  Nb  Nb4       1.0  0.33333405  0.66666753  0.99882392  1.0000
  Nb  Nb5       1.0  0.99999895  0.99999896  0.500006  1.0000
  Nb  Nb6       1.0  9.3e-07  1.08e-06  0.9999919  1.0000
  S   S1        1.0  0.33285627  0.33091645999999997  0.12448543  1.0000
  S   S2        1.0  0.66908473  0.0019406000000000373  0.12448515  1.0000
  S   S3        1.0  0.9980603800000002  0.6671449700000001  0.12448543  1.0000
  S   S4        1.0  0.0019361100000000189  0.33284851  0.62450727  1.0000
  S   S5        1.0  0.6671473399999999  0.9980700199999999  0.87551854  1.0000
  S   S6        1.0  0.66715019  0.6690868  0.62450727  1.0000
  S   S7        1.0  0.3309119899999998  0.9980628499999997  0.62450698  1.0000
  S   S8        1.0  0.6690913399999999  0.6671468699999998  0.37548937  1.0000
  S   S9        1.0  0.33285185  0.0019440800000000275  0.37548939  1.0000
  S   S10       1.0  0.33092323999999995  0.33285396999999994  0.87551853  1.0000
  S   S11       1.0  0.0019310299999998806  0.6690779799999999  0.87551884  1.0000
  S   S12       1.0  0.9980549  0.33090742000000006  0.37548965000000006  1.0000
