data_image0
_chemical_formula_structural       Li2La4Mo2O12
_chemical_formula_sum              "Li2 La4 Mo2 O12"
_cell_length_a       5.795141
_cell_length_b       5.631778
_cell_length_c       9.72236645988604
_cell_angle_alpha    55.77029354803004
_cell_angle_beta     90.0
_cell_angle_gamma    90.0

_space_group_name_H-M_alt    "P 1"
_space_group_IT_number       1

loop_
  _space_group_symop_operation_xyz
  'x, y, z'

loop_
  _atom_site_type_symbol
  _atom_site_label
  _atom_site_symmetry_multiplicity
  _atom_site_fract_x
  _atom_site_fract_y
  _atom_site_fract_z
  _atom_site_occupancy
  Li  Li1       1.0  0.0  0.0  0.0  1.0000
  Li  Li2       1.0  0.5  0.0  0.5  1.0000
  La  La1       1.0  0.941544  0.7667529999999999  0.743938  1.0000
  La  La2       1.0  0.44154399999999994  0.233247  0.756062  1.0000
  La  La3       1.0  0.558456  0.7667529999999999  0.243938  1.0000
  La  La4       1.0  0.058455999999999994  0.23324700000000004  0.256062  1.0000
  Mo  Mo1       1.0  0.5  0.5  0.0  1.0000
  Mo  Mo2       1.0  0.0  0.4999999999999999  0.5  1.0000
  O   O1        1.0  0.779053  0.268331  0.05275  1.0000
  O   O2        1.0  0.720947  0.268331  0.55275  1.0000
  O   O3        1.0  0.220947  0.7316689999999999  0.9472499999999999  1.0000
  O   O4        1.0  0.279053  0.7316689999999999  0.4472499999999999  1.0000
  O   O5        1.0  0.188499  0.15627299999999994  0.549104  1.0000
  O   O6        1.0  0.46707399999999993  0.354398  0.24385299999999996  1.0000
  O   O7        1.0  0.811501  0.843727  0.450896  1.0000
  O   O8        1.0  0.311501  0.156273  0.049103999999999995  1.0000
  O   O9        1.0  0.688499  0.8437270000000002  0.9508959999999999  1.0000
  O   O10       1.0  0.532926  0.6456020000000001  0.7561469999999999  1.0000
  O   O11       1.0  0.032926  0.35439799999999994  0.743853  1.0000
  O   O12       1.0  0.9670739999999999  0.645602  0.256147  1.0000
