data_image0
_chemical_formula_structural       K2Sc2As4H4O16
_chemical_formula_sum              "K2 Sc2 As4 H4 O16"
_cell_length_a       6.845269789885348
_cell_length_b       6.845269789885348
_cell_length_c       9.37383488807457
_cell_angle_alpha    77.47950710099065
_cell_angle_beta     77.47950710099065
_cell_angle_gamma    103.39062851485879

_space_group_name_H-M_alt    "P 1"
_space_group_IT_number       1

loop_
  _space_group_symop_operation_xyz
  'x, y, z'

loop_
  _atom_site_type_symbol
  _atom_site_label
  _atom_site_symmetry_multiplicity
  _atom_site_fract_x
  _atom_site_fract_y
  _atom_site_fract_z
  _atom_site_occupancy
  K   K1        1.0  0.0  0.5  0.0  1.0000
  K   K2        1.0  0.5  0.0  0.5  1.0000
  Sc  Sc1       1.0  0.138362  0.861638  0.25  1.0000
  Sc  Sc2       1.0  0.861638  0.13836199999999999  0.75  1.0000
  As  As1       1.0  0.12680600000000003  0.324  0.35719100000000004  1.0000
  As  As2       1.0  0.6760000000000002  0.8731940000000001  0.142809  1.0000
  As  As3       1.0  0.8731939999999999  0.6759999999999999  0.642809  1.0000
  As  As4       1.0  0.32400000000000007  0.12680600000000006  0.857191  1.0000
  H   H1        1.0  0.30928999999999995  0.3497509999999999  0.5335100000000002  1.0000
  H   H2        1.0  0.6502490000000001  0.6907100000000002  0.9664900000000001  1.0000
  H   H3        1.0  0.6907099999999999  0.6502489999999999  0.46649000000000007  1.0000
  H   H4        1.0  0.34975100000000003  0.30929000000000006  0.03351  1.0000
  O   O1        1.0  0.08494400000000003  0.545022  0.26272  1.0000
  O   O2        1.0  0.45497800000000005  0.915056  0.23728000000000002  1.0000
  O   O3        1.0  0.915056  0.45497799999999994  0.73728  1.0000
  O   O4        1.0  0.5450220000000001  0.08494400000000008  0.76272  1.0000
  O   O5        1.0  0.18026999999999996  0.18781399999999995  0.22800500000000004  1.0000
  O   O6        1.0  0.8121860000000001  0.81973  0.271995  1.0000
  O   O7        1.0  0.8197300000000001  0.812186  0.7719950000000001  1.0000
  O   O8        1.0  0.18781399999999998  0.18026999999999996  0.728005  1.0000
  O   O9        1.0  0.9172400000000002  0.190272  0.51087  1.0000
  O   O10       1.0  0.8097279999999999  0.08275999999999993  0.98913  1.0000
  O   O11       1.0  0.08275999999999996  0.809728  0.48913000000000006  1.0000
  O   O12       1.0  0.19027200000000014  0.9172400000000002  0.010870000000000001  1.0000
  O   O13       1.0  0.353941  0.388257  0.4197640000000001  1.0000
  O   O14       1.0  0.611743  0.646059  0.08023600000000002  1.0000
  O   O15       1.0  0.646059  0.611743  0.5802360000000001  1.0000
  O   O16       1.0  0.3882570000000001  0.35394100000000006  0.919764  1.0000
