data_image0
_chemical_formula_structural       Os4O4F20
_chemical_formula_sum              "Os4 O4 F20"
_cell_length_a       4.91895724000284
_cell_length_b       8.46027786837667
_cell_length_c       9.206226029144245
_cell_angle_alpha    89.99489848042214
_cell_angle_beta     89.99990568770629
_cell_angle_gamma    90.00012534674673

_space_group_name_H-M_alt    "P 1"
_space_group_IT_number       1

loop_
  _space_group_symop_operation_xyz
  'x, y, z'

loop_
  _atom_site_type_symbol
  _atom_site_label
  _atom_site_symmetry_multiplicity
  _atom_site_fract_x
  _atom_site_fract_y
  _atom_site_fract_z
  _atom_site_occupancy
  Os  Os1       1.0  0.92126255  0.16551599  0.37159774  1.0000
  Os  Os2       1.0  0.42125723  0.6654289500000001  0.12839761  1.0000
  Os  Os3       1.0  0.57873919  0.16550972000000005  0.87160417  1.0000
  Os  Os4       1.0  0.07873928  0.6654271900000001  0.62839541  1.0000
  O   O1        1.0  0.05966029  0.022824229999999997  0.26862300999999994  1.0000
  O   O2        1.0  0.94033648  0.5227570600000001  0.73137632  1.0000
  O   O3        1.0  0.55965971  0.52276061  0.23137741  1.0000
  O   O4        1.0  0.44034436999999993  0.02281699  0.7686363899999998  1.0000
  F   F1        1.0  0.78784821  0.6795200099999998  0.49903963  1.0000
  F   F2        1.0  0.9342043699999999  0.83213619  0.7369184599999999  1.0000
  F   F3        1.0  0.75631426  0.02971865000000001  6.604e-05  1.0000
  F   F4        1.0  0.43422831  0.33219231999999993  0.7630764399999999  1.0000
  F   F5        1.0  0.71215442  0.67952037  0.99903616  1.0000
  F   F6        1.0  0.26909424  0.82824681  0.013413739999999999  1.0000
  F   F7        1.0  0.28785935  0.17958653  0.00096456  1.0000
  F   F8        1.0  0.7309178  0.32830567000000005  0.9865889  1.0000
  F   F9        1.0  0.23090893999999998  0.82824308  0.5134103699999999  1.0000
  F   F10       1.0  0.76909245  0.32830739  0.48658923000000004  1.0000
  F   F11       1.0  0.09869463  0.6810089100000001  0.23474018999999993  1.0000
  F   F12       1.0  0.24369259999999998  0.5296688099999999  0.99993861  1.0000
  F   F13       1.0  0.25631043  0.52966848  0.49993873000000005  1.0000
  F   F14       1.0  0.21214567  0.17958628  0.50095222  1.0000
  F   F15       1.0  0.40129346999999993  0.6810125900000001  0.7347413  1.0000
  F   F16       1.0  0.0657677  0.3322010799999999  0.2630717  1.0000
  F   F17       1.0  0.59867711  0.18109208  0.26526293  1.0000
  F   F18       1.0  0.565785  0.83213399  0.23691717  1.0000
  F   F19       1.0  0.74368636  0.029718559999999998  0.50006612  1.0000
  F   F20       1.0  0.90132459  0.18108446  0.7652584399999999  1.0000
