data_image0
_chemical_formula_structural       Ba4Si4O16
_chemical_formula_sum              "Ba4 Si4 O16"
_cell_length_a       7.160666
_cell_length_b       7.297127865101584
_cell_length_c       7.647340799459378
_cell_angle_alpha    89.35327662102696
_cell_angle_beta     89.58586983693347
_cell_angle_gamma    88.27971265192824

_space_group_name_H-M_alt    "P 1"
_space_group_IT_number       1

loop_
  _space_group_symop_operation_xyz
  'x, y, z'

loop_
  _atom_site_type_symbol
  _atom_site_label
  _atom_site_symmetry_multiplicity
  _atom_site_fract_x
  _atom_site_fract_y
  _atom_site_fract_z
  _atom_site_occupancy
  Ba  Ba1       1.0  0.571659  0.7905870000000002  0.209069  1.0000
  Ba  Ba2       1.0  0.428341  0.20941300000000002  0.7909310000000002  1.0000
  Ba  Ba3       1.0  0.8906990000000001  0.7325140000000001  0.7079970000000001  1.0000
  Ba  Ba4       1.0  0.10930100000000001  0.26748600000000006  0.29200300000000007  1.0000
  Si  Si1       1.0  0.072519  0.7542610000000001  0.20625100000000002  1.0000
  Si  Si2       1.0  0.9274810000000001  0.24573900000000004  0.7937490000000001  1.0000
  Si  Si3       1.0  0.387005  0.7271400000000001  0.7065350000000001  1.0000
  Si  Si4       1.0  0.612995  0.27286  0.29346500000000003  1.0000
  O   O1        1.0  0.9387460000000001  0.665529  0.35881100000000005  1.0000
  O   O2        1.0  0.061253999999999996  0.3344710000000001  0.6411890000000001  1.0000
  O   O3        1.0  0.21943400000000002  0.5937600000000001  0.13353300000000004  1.0000
  O   O4        1.0  0.780566  0.40624  0.866467  1.0000
  O   O5        1.0  0.20191200000000004  0.9065880000000001  0.29763200000000006  1.0000
  O   O6        1.0  0.798088  0.093412  0.7023680000000001  1.0000
  O   O7        1.0  0.9369020000000001  0.8380880000000002  0.05170000000000001  1.0000
  O   O8        1.0  0.063098  0.161912  0.9483000000000001  1.0000
  O   O9        1.0  0.243643  0.8952440000000002  0.6382340000000001  1.0000
  O   O10       1.0  0.756357  0.104756  0.361766  1.0000
  O   O11       1.0  0.528376  0.6615730000000001  0.548591  1.0000
  O   O12       1.0  0.47162400000000004  0.33842700000000003  0.45140900000000006  1.0000
  O   O13       1.0  0.512273  0.8202760000000001  0.8577740000000001  1.0000
  O   O14       1.0  0.487727  0.179724  0.142226  1.0000
  O   O15       1.0  0.268094  0.558105  0.7939310000000002  1.0000
  O   O16       1.0  0.7319060000000001  0.44189500000000004  0.20606900000000003  1.0000
