data_image0
_chemical_formula_structural       Ge8S12I8
_chemical_formula_sum              "Ge8 S12 I8"
_cell_length_a       11.33557755436065
_cell_length_b       11.33557755436065
_cell_length_c       10.012059
_cell_angle_alpha    90.0
_cell_angle_beta     90.0
_cell_angle_gamma    119.99999739905074

_space_group_name_H-M_alt    "P 1"
_space_group_IT_number       1

loop_
  _space_group_symop_operation_xyz
  'x, y, z'

loop_
  _atom_site_type_symbol
  _atom_site_label
  _atom_site_symmetry_multiplicity
  _atom_site_fract_x
  _atom_site_fract_y
  _atom_site_fract_z
  _atom_site_occupancy
  Ge  Ge1       1.0  0.811501  0.281632  0.7702270000000001  1.0000
  Ge  Ge2       1.0  0.47013099999999997  0.18849899999999994  0.7702270000000001  1.0000
  Ge  Ge3       1.0  0.3333330000000001  0.6666670000000001  0.946839  1.0000
  Ge  Ge4       1.0  0.18849899999999997  0.718368  0.229773  1.0000
  Ge  Ge5       1.0  0.5298690000000001  0.8115010000000001  0.229773  1.0000
  Ge  Ge6       1.0  0.281632  0.470131  0.229773  1.0000
  Ge  Ge7       1.0  0.666667  0.333333  0.053161  1.0000
  Ge  Ge8       1.0  0.718368  0.529869  0.7702270000000001  1.0000
  S   S1        1.0  0.6107559999999999  0.12086399999999999  0.686176  1.0000
  S   S2        1.0  0.17569500000000002  0.721669  0.006562000000000001  1.0000
  S   S3        1.0  0.545974  0.824305  0.006562000000000001  1.0000
  S   S4        1.0  0.27833100000000005  0.45402600000000004  0.006562000000000001  1.0000
  S   S5        1.0  0.45402599999999993  0.17569499999999996  0.9934379999999999  1.0000
  S   S6        1.0  0.721669  0.545974  0.9934379999999999  1.0000
  S   S7        1.0  0.824305  0.278331  0.9934379999999999  1.0000
  S   S8        1.0  0.12086400000000008  0.5101080000000001  0.313824  1.0000
  S   S9        1.0  0.5101080000000001  0.3892440000000001  0.686176  1.0000
  S   S10       1.0  0.8791359999999999  0.48989200000000005  0.686176  1.0000
  S   S11       1.0  0.38924400000000015  0.8791360000000001  0.313824  1.0000
  S   S12       1.0  0.489892  0.610756  0.313824  1.0000
  I   I1        1.0  0.9834440000000001  0.21791799999999997  0.687576  1.0000
  I   I2        1.0  0.782082  0.765526  0.687576  1.0000
  I   I3        1.0  0.01655599999999998  0.782082  0.312424  1.0000
  I   I4        1.0  0.7655259999999999  0.9834439999999999  0.312424  1.0000
  I   I5        1.0  0.21791800000000003  0.23447400000000002  0.312424  1.0000
  I   I6        1.0  0.666667  0.333333  0.305129  1.0000
  I   I7        1.0  0.3333330000000001  0.6666670000000001  0.694871  1.0000
  I   I8        1.0  0.23447399999999996  0.016555999999999998  0.687576  1.0000
