data_image0
_chemical_formula_structural       Sr4S4O16
_chemical_formula_sum              "Sr4 S4 O16"
_cell_length_a       5.34282259
_cell_length_b       6.87054329
_cell_length_c       8.35577502
_cell_angle_alpha    90.0
_cell_angle_beta     90.0
_cell_angle_gamma    90.0

_space_group_name_H-M_alt    "P 1"
_space_group_IT_number       1

loop_
  _space_group_symop_operation_xyz
  'x, y, z'

loop_
  _atom_site_type_symbol
  _atom_site_label
  _atom_site_symmetry_multiplicity
  _atom_site_fract_x
  _atom_site_fract_y
  _atom_site_fract_z
  _atom_site_occupancy
  Sr  Sr1       1.0  0.25  0.34294624999999995  0.68360804  1.0000
  Sr  Sr2       1.0  0.75  0.65705375  0.31639196  1.0000
  Sr  Sr3       1.0  0.75  0.84294625  0.81639196  1.0000
  Sr  Sr4       1.0  0.25  0.15705374999999996  0.18360804  1.0000
  S   S1        1.0  0.75  0.31575773999999995  0.93774064  1.0000
  S   S2        1.0  0.25  0.68424226  0.06225936  1.0000
  S   S3        1.0  0.25  0.81575774  0.56225936  1.0000
  S   S4        1.0  0.75  0.18424226  0.43774064  1.0000
  O   O1        1.0  0.4748746300000001  0.8102527499999999  0.07798628  1.0000
  O   O2        1.0  0.9748746300000001  0.18974725  0.92201372  1.0000
  O   O3        1.0  0.52512537  0.31025274999999997  0.42201372  1.0000
  O   O4        1.0  0.025125370000000005  0.6897472499999999  0.57798628  1.0000
  O   O5        1.0  0.52512537  0.18974725  0.92201372  1.0000
  O   O6        1.0  0.025125370000000005  0.8102527499999999  0.07798628  1.0000
  O   O7        1.0  0.4748746300000001  0.6897472499999999  0.57798628  1.0000
  O   O8        1.0  0.9748746300000001  0.31025274999999997  0.42201372  1.0000
  O   O9        1.0  0.75  0.09189915  0.59498308  1.0000
  O   O10       1.0  0.25  0.9081008499999998  0.40501692  1.0000
  O   O11       1.0  0.25  0.59189915  0.90501692  1.0000
  O   O12       1.0  0.75  0.40810085  0.09498308  1.0000
  O   O13       1.0  0.75  0.04149239  0.30637766  1.0000
  O   O14       1.0  0.25  0.9585076099999998  0.69362234  1.0000
  O   O15       1.0  0.25  0.54149239  0.19362234  1.0000
  O   O16       1.0  0.75  0.45850760999999995  0.80637766  1.0000
