data_image0
_chemical_formula_structural       Na4Os4O12
_chemical_formula_sum              "Na4 Os4 O12"
_cell_length_a       5.4001813191396995
_cell_length_b       7.563733216305968
_cell_length_c       5.301335820889532
_cell_angle_alpha    89.99944685375625
_cell_angle_beta     90.00159101873064
_cell_angle_gamma    89.99043965731963

_space_group_name_H-M_alt    "P 1"
_space_group_IT_number       1

loop_
  _space_group_symop_operation_xyz
  'x, y, z'

loop_
  _atom_site_type_symbol
  _atom_site_label
  _atom_site_symmetry_multiplicity
  _atom_site_fract_x
  _atom_site_fract_y
  _atom_site_fract_z
  _atom_site_occupancy
  Na  Na1       1.0  0.04256471  0.24956802  0.9887665200000001  1.0000
  Na  Na2       1.0  0.9574349  0.7504315200000001  0.01122857  1.0000
  Na  Na3       1.0  0.54255385  0.24965995999999996  0.51123124  1.0000
  Na  Na4       1.0  0.4574435  0.7503411100000001  0.48877489999999996  1.0000
  Os  Os1       1.0  8.59e-06  0.99997492  0.50000873  1.0000
  Os  Os2       1.0  0.99999945  0.50002412  0.50000092  1.0000
  Os  Os3       1.0  0.50000172  0.50002277  0.99997958  1.0000
  Os  Os4       1.0  0.4999964499999999  0.9999748  0.99998696  1.0000
  O   O1        1.0  0.47688320999999995  0.2500662  0.08740560000000001  1.0000
  O   O2        1.0  0.52311691  0.7499343599999999  0.91259618  1.0000
  O   O3        1.0  0.97688113  0.25008303  0.41260220000000003  1.0000
  O   O4        1.0  0.02311644  0.74991932  0.58739782  1.0000
  O   O5        1.0  0.29304515  0.04496314  0.70458726  1.0000
  O   O6        1.0  0.70684558  0.54510711  0.29568745  1.0000
  O   O7        1.0  0.7069552  0.9550235100000001  0.29541256  1.0000
  O   O8        1.0  0.29316652  0.45490493  0.7043259300000001  1.0000
  O   O9        1.0  0.79319957  0.45489148999999995  0.7956491800000001  1.0000
  O   O10       1.0  0.20696111  0.95504167  0.20458918999999998  1.0000
  O   O11       1.0  0.20678995000000003  0.5451209  0.20435984000000001  1.0000
  O   O12       1.0  0.79303705  0.044946120000000006  0.7954103699999999  1.0000
