data_image0
_chemical_formula_structural       Co4Sb4O14
_chemical_formula_sum              "Co4 Sb4 O14"
_cell_length_a       7.190254902475155
_cell_length_b       7.190254902475155
_cell_length_c       7.190254902475155
_cell_angle_alpha    59.99999999999999
_cell_angle_beta     59.99999999999999
_cell_angle_gamma    59.99999999999999

_space_group_name_H-M_alt    "P 1"
_space_group_IT_number       1

loop_
  _space_group_symop_operation_xyz
  'x, y, z'

loop_
  _atom_site_type_symbol
  _atom_site_label
  _atom_site_symmetry_multiplicity
  _atom_site_fract_x
  _atom_site_fract_y
  _atom_site_fract_z
  _atom_site_occupancy
  Co  Co1       1.0  0.6250000000000001  0.12500000000000003  0.12499999999999999  1.0000
  Co  Co2       1.0  0.12499999999999999  0.6250000000000001  0.12500000000000003  1.0000
  Co  Co3       1.0  0.12499999999999994  0.12499999999999994  0.625  1.0000
  Co  Co4       1.0  0.125  0.125  0.125  1.0000
  Sb  Sb1       1.0  0.12499999999999986  0.625  0.6250000000000001  1.0000
  Sb  Sb2       1.0  0.625  0.12499999999999986  0.6250000000000001  1.0000
  Sb  Sb3       1.0  0.6250000000000001  0.6250000000000001  0.12500000000000003  1.0000
  Sb  Sb4       1.0  0.625  0.625  0.6250000000000001  1.0000
  O   O1        1.0  0.7063310000000002  0.7063310000000002  0.29366899999999996  1.0000
  O   O2        1.0  0.29366899999999996  0.29366899999999996  0.706331  1.0000
  O   O3        1.0  0.706331  0.29366899999999985  0.7063310000000002  1.0000
  O   O4        1.0  0.2936690000000001  0.7063310000000002  0.29366899999999996  1.0000
  O   O5        1.0  0.29366899999999985  0.706331  0.7063310000000002  1.0000
  O   O6        1.0  0.7063310000000002  0.2936690000000001  0.29366899999999996  1.0000
  O   O7        1.0  0.543669  0.543669  0.9563310000000003  1.0000
  O   O8        1.0  0.9563309999999999  0.9563309999999999  0.543669  1.0000
  O   O9        1.0  0.543669  0.9563309999999999  0.5436690000000001  1.0000
  O   O10       1.0  0.9563309999999999  0.543669  0.9563310000000003  1.0000
  O   O11       1.0  0.9563309999999999  0.543669  0.5436690000000001  1.0000
  O   O12       1.0  0.543669  0.9563309999999999  0.9563310000000003  1.0000
  O   O13       1.0  0.25  0.25  0.25  1.0000
  O   O14       1.0  0.0  0.0  0.0  1.0000
