data_image0
_chemical_formula_structural       Cr4Pb4O16
_chemical_formula_sum              "Cr4 Pb4 O16"
_cell_length_a       7.43348116
_cell_length_b       6.8069060314884595
_cell_length_c       8.717189942251002
_cell_angle_alpha    52.85346861973674
_cell_angle_beta     90.0
_cell_angle_gamma    90.0

_space_group_name_H-M_alt    "P 1"
_space_group_IT_number       1

loop_
  _space_group_symop_operation_xyz
  'x, y, z'

loop_
  _atom_site_type_symbol
  _atom_site_label
  _atom_site_symmetry_multiplicity
  _atom_site_fract_x
  _atom_site_fract_y
  _atom_site_fract_z
  _atom_site_occupancy
  Cr  Cr1       1.0  0.66446176  0.31949109999999986  0.79925317  1.0000
  Cr  Cr2       1.0  0.83553824  0.31949109999999986  0.29925317000000007  1.0000
  Cr  Cr3       1.0  0.16446176  0.6805088999999999  0.70074683  1.0000
  Cr  Cr4       1.0  0.33553824  0.6805089  0.20074683000000001  1.0000
  Pb  Pb1       1.0  0.6420423700000001  0.82106445  0.7798007200000001  1.0000
  Pb  Pb2       1.0  0.14204237  0.1789355499999999  0.7201992800000001  1.0000
  Pb  Pb3       1.0  0.3579576300000001  0.17893554999999997  0.22019928000000002  1.0000
  Pb  Pb4       1.0  0.8579576300000001  0.82106445  0.27980072  1.0000
  O   O1        1.0  0.7118767400000001  0.6019298299999999  0.6124043800000001  1.0000
  O   O2        1.0  0.21187674  0.39807016999999983  0.8875956200000001  1.0000
  O   O3        1.0  0.28812326  0.39807016999999995  0.38759562  1.0000
  O   O4        1.0  0.7881232600000001  0.60192983  0.11240438000000001  1.0000
  O   O5        1.0  0.5988635400000001  0.3455782599999999  0.9683003900000001  1.0000
  O   O6        1.0  0.09886354  0.6544217399999999  0.53169961  1.0000
  O   O7        1.0  0.40113646  0.6544217399999999  0.03169961000000001  1.0000
  O   O8        1.0  0.9011364600000001  0.3455782599999999  0.46830039000000007  1.0000
  O   O9        1.0  0.99210059  0.19288254  0.25058143  1.0000
  O   O10       1.0  0.49210059  0.80711746  0.24941857000000003  1.0000
  O   O11       1.0  0.00789941  0.80711746  0.7494185700000001  1.0000
  O   O12       1.0  0.50789941  0.1928825399999999  0.75058143  1.0000
  O   O13       1.0  0.6554639400000001  0.1408088799999999  0.3751576800000001  1.0000
  O   O14       1.0  0.15546394000000002  0.85919112  0.12484232000000002  1.0000
  O   O15       1.0  0.34453606000000003  0.85919112  0.62484232  1.0000
  O   O16       1.0  0.8445360600000001  0.1408088799999999  0.8751576800000002  1.0000
