data_image0
_chemical_formula_structural       Ba12Ge4O4
_chemical_formula_sum              "Ba12 Ge4 O4"
_cell_length_a       7.57259814
_cell_length_b       7.72347163
_cell_length_c       10.83356778
_cell_angle_alpha    90.0
_cell_angle_beta     90.0
_cell_angle_gamma    90.0

_space_group_name_H-M_alt    "P 1"
_space_group_IT_number       1

loop_
  _space_group_symop_operation_xyz
  'x, y, z'

loop_
  _atom_site_type_symbol
  _atom_site_label
  _atom_site_symmetry_multiplicity
  _atom_site_fract_x
  _atom_site_fract_y
  _atom_site_fract_z
  _atom_site_occupancy
  Ba  Ba1       1.0  0.57839634  0.5193654599999998  0.25  1.0000
  Ba  Ba2       1.0  0.07839634  0.98063454  0.7500000000000001  1.0000
  Ba  Ba3       1.0  0.92160366  0.01936546  0.25  1.0000
  Ba  Ba4       1.0  0.42160365999999994  0.48063454  0.7500000000000001  1.0000
  Ba  Ba5       1.0  0.28987115  0.21069583  0.4590442900000001  1.0000
  Ba  Ba6       1.0  0.78987115  0.28930417  0.54095571  1.0000
  Ba  Ba7       1.0  0.21012885  0.71069583  0.040955710000000006  1.0000
  Ba  Ba8       1.0  0.7101288499999999  0.7893041699999999  0.95904429  1.0000
  Ba  Ba9       1.0  0.7101288499999999  0.7893041699999999  0.54095571  1.0000
  Ba  Ba10      1.0  0.21012885  0.71069583  0.4590442900000001  1.0000
  Ba  Ba11      1.0  0.78987115  0.28930417  0.95904429  1.0000
  Ba  Ba12      1.0  0.28987115  0.21069583  0.040955710000000006  1.0000
  Ge  Ge1       1.0  0.98693443  0.53955201  0.7500000000000001  1.0000
  Ge  Ge2       1.0  0.4869344299999999  0.9604479899999999  0.25  1.0000
  Ge  Ge3       1.0  0.51306557  0.03955201  0.7500000000000001  1.0000
  Ge  Ge4       1.0  0.01306557  0.46044799  0.25  1.0000
  O   O1        1.0  0.0  0.0  0.5  1.0000
  O   O2        1.0  0.5  0.5  0.5  1.0000
  O   O3        1.0  0.5  0.5  0.0  1.0000
  O   O4        1.0  0.0  0.0  0.0  1.0000
