data_image0
_chemical_formula_structural       V8B8Ir4
_chemical_formula_sum              "V8 B8 Ir4"
_cell_length_a       3.072419
_cell_length_b       7.212604
_cell_length_c       9.293413
_cell_angle_alpha    90.0
_cell_angle_beta     90.0
_cell_angle_gamma    90.0

_space_group_name_H-M_alt    "P 1"
_space_group_IT_number       1

loop_
  _space_group_symop_operation_xyz
  'x, y, z'

loop_
  _atom_site_type_symbol
  _atom_site_label
  _atom_site_symmetry_multiplicity
  _atom_site_fract_x
  _atom_site_fract_y
  _atom_site_fract_z
  _atom_site_occupancy
  V   V1        1.0  0.49999999999999994  0.812759  0.133042  1.0000
  V   V2        1.0  0.49999999999999994  0.187241  0.866958  1.0000
  V   V3        1.0  0.0  0.687241  0.633042  1.0000
  V   V4        1.0  0.0  0.31275900000000006  0.366958  1.0000
  V   V5        1.0  0.49999999999999994  0.574185  0.860848  1.0000
  V   V6        1.0  0.49999999999999994  0.42581500000000005  0.139152  1.0000
  V   V7        1.0  0.0  0.925815  0.360848  1.0000
  V   V8        1.0  0.0  0.07418500000000001  0.639152  1.0000
  B   B1        1.0  0.49999999999999994  0.113603  0.45999300000000004  1.0000
  B   B2        1.0  0.49999999999999994  0.886397  0.540007  1.0000
  B   B3        1.0  0.0  0.386397  0.9599930000000001  1.0000
  B   B4        1.0  0.0  0.6136030000000001  0.04000700000000001  1.0000
  B   B5        1.0  0.49999999999999994  0.122298  0.268609  1.0000
  B   B6        1.0  0.49999999999999994  0.8777020000000001  0.7313910000000001  1.0000
  B   B7        1.0  0.0  0.377702  0.768609  1.0000
  B   B8        1.0  0.0  0.622298  0.231391  1.0000
  Ir  Ir1       1.0  0.49999999999999994  0.626698  0.395651  1.0000
  Ir  Ir2       1.0  0.49999999999999994  0.3733020000000001  0.604349  1.0000
  Ir  Ir3       1.0  0.0  0.873302  0.8956510000000001  1.0000
  Ir  Ir4       1.0  0.0  0.126698  0.104349  1.0000
