data_image0
_chemical_formula_structural       Sr4Cu2Si4O14
_chemical_formula_sum              "Sr4 Cu2 Si4 O14"
_cell_length_a       8.206475
_cell_length_b       8.206475
_cell_length_c       5.111436
_cell_angle_alpha    90.0
_cell_angle_beta     90.0
_cell_angle_gamma    90.0

_space_group_name_H-M_alt    "P 1"
_space_group_IT_number       1

loop_
  _space_group_symop_operation_xyz
  'x, y, z'

loop_
  _atom_site_type_symbol
  _atom_site_label
  _atom_site_symmetry_multiplicity
  _atom_site_fract_x
  _atom_site_fract_y
  _atom_site_fract_z
  _atom_site_occupancy
  Sr  Sr1       1.0  0.666534  0.166534  0.9911539999999999  1.0000
  Sr  Sr2       1.0  0.8334660000000002  0.666534  0.008846  1.0000
  Sr  Sr3       1.0  0.166534  0.333466  0.008846  1.0000
  Sr  Sr4       1.0  0.333466  0.8334660000000002  0.9911539999999999  1.0000
  Cu  Cu1       1.0  0.5  0.5  0.5  1.0000
  Cu  Cu2       1.0  0.0  0.0  0.5  1.0000
  Si  Si1       1.0  0.863777  0.363777  0.536529  1.0000
  Si  Si2       1.0  0.636223  0.863777  0.46347099999999997  1.0000
  Si  Si3       1.0  0.363777  0.136223  0.46347099999999997  1.0000
  Si  Si4       1.0  0.136223  0.636223  0.536529  1.0000
  O   O1        1.0  0.69326  0.418522  0.6796049999999999  1.0000
  O   O2        1.0  0.30674  0.581478  0.6796049999999999  1.0000
  O   O3        1.0  0.418522  0.30674  0.320395  1.0000
  O   O4        1.0  0.581478  0.69326  0.320395  1.0000
  O   O5        1.0  0.918522  0.19326  0.6796049999999999  1.0000
  O   O6        1.0  0.80674  0.918522  0.320395  1.0000
  O   O7        1.0  0.19326  0.081478  0.320395  1.0000
  O   O8        1.0  0.081478  0.80674  0.6796049999999999  1.0000
  O   O9        1.0  0.864999  0.364999  0.220503  1.0000
  O   O10       1.0  0.635001  0.864999  0.779497  1.0000
  O   O11       1.0  0.0  0.5  0.652542  1.0000
  O   O12       1.0  0.5  0.0  0.34745799999999993  1.0000
  O   O13       1.0  0.135001  0.635001  0.220503  1.0000
  O   O14       1.0  0.364999  0.135001  0.779497  1.0000
