data_image0
_chemical_formula_structural       La6Mg22Al
_chemical_formula_sum              "La6 Mg22 Al1"
_cell_length_a       10.302664595827236
_cell_length_b       10.302664595827236
_cell_length_c       10.302664595827236
_cell_angle_alpha    59.99999999999999
_cell_angle_beta     59.99999999999999
_cell_angle_gamma    59.99999999999999

_space_group_name_H-M_alt    "P 1"
_space_group_IT_number       1

loop_
  _space_group_symop_operation_xyz
  'x, y, z'

loop_
  _atom_site_type_symbol
  _atom_site_label
  _atom_site_symmetry_multiplicity
  _atom_site_fract_x
  _atom_site_fract_y
  _atom_site_fract_z
  _atom_site_occupancy
  La  La1       1.0  0.7879619999999999  0.21203799999999995  0.21203800000000006  1.0000
  La  La2       1.0  0.7879620000000002  0.21203800000000012  0.7879619999999999  1.0000
  La  La3       1.0  0.21203799999999998  0.21203799999999998  0.787962  1.0000
  La  La4       1.0  0.21203800000000012  0.7879620000000002  0.7879619999999999  1.0000
  La  La5       1.0  0.787962  0.787962  0.21203799999999998  1.0000
  La  La6       1.0  0.21203799999999995  0.7879619999999999  0.21203800000000006  1.0000
  Mg  Mg1       1.0  0.8636900000000001  0.3787700000000001  0.37876999999999994  1.0000
  Mg  Mg2       1.0  0.828808  0.828808  0.828808  1.0000
  Mg  Mg3       1.0  0.37876999999999994  0.37876999999999994  0.37877000000000005  1.0000
  Mg  Mg4       1.0  0.0  0.0  0.5  1.0000
  Mg  Mg5       1.0  0.5  0.5  0.0  1.0000
  Mg  Mg6       1.0  0.48642499999999994  0.17119199999999998  0.17119200000000004  1.0000
  Mg  Mg7       1.0  0.3787700000000001  0.3787700000000001  0.8636899999999998  1.0000
  Mg  Mg8       1.0  0.828808  0.5135750000000001  0.828808  1.0000
  Mg  Mg9       1.0  0.828808  0.828808  0.5135750000000001  1.0000
  Mg  Mg10      1.0  0.62123  0.62123  0.13630999999999993  1.0000
  Mg  Mg11      1.0  0.13631000000000018  0.6212300000000002  0.6212299999999998  1.0000
  Mg  Mg12      1.0  0.17119200000000004  0.17119200000000004  0.48642499999999994  1.0000
  Mg  Mg13      1.0  0.3787700000000001  0.8636900000000001  0.37876999999999994  1.0000
  Mg  Mg14      1.0  0.62123  0.62123  0.62123  1.0000
  Mg  Mg15      1.0  0.0  0.5  0.0  1.0000
  Mg  Mg16      1.0  0.0  0.5  0.5  1.0000
  Mg  Mg17      1.0  0.17119199999999998  0.48642499999999994  0.17119200000000004  1.0000
  Mg  Mg18      1.0  0.62123  0.13631000000000007  0.62123  1.0000
  Mg  Mg19      1.0  0.5135750000000001  0.828808  0.828808  1.0000
  Mg  Mg20      1.0  0.5  0.0  0.0  1.0000
  Mg  Mg21      1.0  0.5  0.0  0.5  1.0000
  Mg  Mg22      1.0  0.171192  0.171192  0.171192  1.0000
  Al  Al1       1.0  0.5  0.5  0.5  1.0000
