data_image0
_chemical_formula_structural       Tl4Te6O14
_chemical_formula_sum              "Tl4 Te6 O14"
_cell_length_a       6.858993339857612
_cell_length_b       7.465433681144311
_cell_length_c       9.995755124462173
_cell_angle_alpha    92.35850214076177
_cell_angle_beta     108.93321615203959
_cell_angle_gamma    112.86580798481941

_space_group_name_H-M_alt    "P 1"
_space_group_IT_number       1

loop_
  _space_group_symop_operation_xyz
  'x, y, z'

loop_
  _atom_site_type_symbol
  _atom_site_label
  _atom_site_symmetry_multiplicity
  _atom_site_fract_x
  _atom_site_fract_y
  _atom_site_fract_z
  _atom_site_occupancy
  Tl  Tl1       1.0  0.8841214200000002  0.14820370000000005  0.8273152800000001  1.0000
  Tl  Tl2       1.0  0.29666893999999994  0.04005977  0.56649234  1.0000
  Tl  Tl3       1.0  0.11587857999999995  0.8517963  0.17268472  1.0000
  Tl  Tl4       1.0  0.7033310599999999  0.95994023  0.43350766  1.0000
  Te  Te1       1.0  0.4875660499999999  0.21109438  0.98355062  1.0000
  Te  Te2       1.0  0.13163885000000003  0.35457191000000005  0.23129475000000002  1.0000
  Te  Te3       1.0  0.263493  0.51180385  0.6631958  1.0000
  Te  Te4       1.0  0.86836115  0.64542809  0.76870525  1.0000
  Te  Te5       1.0  0.51243395  0.78890562  0.01644938  1.0000
  Te  Te6       1.0  0.736507  0.48819615000000005  0.3368042  1.0000
  O   O1        1.0  0.05318579  0.4702424  0.36799806  1.0000
  O   O2        1.0  0.5563302300000001  0.45862246000000007  0.6906071600000001  1.0000
  O   O3        1.0  0.15926237000000001  0.14929034  0.32054917000000005  1.0000
  O   O4        1.0  0.34788230999999986  0.9001950299999999  0.8779496599999999  1.0000
  O   O5        1.0  0.8407376299999999  0.85070966  0.67945083  1.0000
  O   O6        1.0  0.32326340000000003  0.5318327600000001  0.86770388  1.0000
  O   O7        1.0  0.6767365999999999  0.46816724  0.13229612  1.0000
  O   O8        1.0  0.65211769  0.09980497000000002  0.12205034000000001  1.0000
  O   O9        1.0  0.8925916899999999  0.7595874  0.37017707  1.0000
  O   O10       1.0  0.4436697700000001  0.54137754  0.30939284000000006  1.0000
  O   O11       1.0  0.9468142099999998  0.5297576  0.6320019399999999  1.0000
  O   O12       1.0  0.76414481  0.84436209  0.9668450299999999  1.0000
  O   O13       1.0  0.10740831000000006  0.24041260000000003  0.6298229300000001  1.0000
  O   O14       1.0  0.23585518999999996  0.15563791  0.03315497  1.0000
