data_image0
_chemical_formula_structural       Rb12Al2Sb6
_chemical_formula_sum              "Rb12 Al2 Sb6"
_cell_length_a       6.27222851
_cell_length_b       10.765678405875462
_cell_length_c       12.437375611625905
_cell_angle_alpha    100.7436505216502
_cell_angle_beta     90.0
_cell_angle_gamma    90.0

_space_group_name_H-M_alt    "P 1"
_space_group_IT_number       1

loop_
  _space_group_symop_operation_xyz
  'x, y, z'

loop_
  _atom_site_type_symbol
  _atom_site_label
  _atom_site_symmetry_multiplicity
  _atom_site_fract_x
  _atom_site_fract_y
  _atom_site_fract_z
  _atom_site_occupancy
  Rb  Rb1       1.0  0.7500000000000001  0.8788289499999999  0.32418895  1.0000
  Rb  Rb2       1.0  0.25  0.12117105  0.67581105  1.0000
  Rb  Rb3       1.0  0.7500000000000001  0.86449052  0.9762582  1.0000
  Rb  Rb4       1.0  0.25  0.13550948  0.023741799999999997  1.0000
  Rb  Rb5       1.0  0.7500000000000001  0.5589004799999999  0.45834831000000004  1.0000
  Rb  Rb6       1.0  0.25  0.44109951999999997  0.54165169  1.0000
  Rb  Rb7       1.0  0.7500000000000001  0.54235498  0.07687839  1.0000
  Rb  Rb8       1.0  0.25  0.45764502  0.9231216099999999  1.0000
  Rb  Rb9       1.0  0.7500000000000001  0.25830698  0.22234156  1.0000
  Rb  Rb10      1.0  0.25  0.74169302  0.7776584399999998  1.0000
  Rb  Rb11      1.0  0.7500000000000001  0.9127910799999999  0.63150647  1.0000
  Rb  Rb12      1.0  0.25  0.08720891999999998  0.36849353  1.0000
  Al  Al1       1.0  0.7500000000000001  0.32061375  0.7200286899999999  1.0000
  Al  Al2       1.0  0.25  0.67938625  0.27997131  1.0000
  Sb  Sb1       1.0  0.7500000000000001  0.56734416  0.7719466099999999  1.0000
  Sb  Sb2       1.0  0.25  0.43265583999999996  0.22805338999999997  1.0000
  Sb  Sb3       1.0  0.7500000000000001  0.2118434  0.5120226  1.0000
  Sb  Sb4       1.0  0.25  0.7881565999999999  0.48797739999999995  1.0000
  Sb  Sb5       1.0  0.7500000000000001  0.17973583  0.8765485899999998  1.0000
  Sb  Sb6       1.0  0.25  0.8202641699999998  0.12345141  1.0000
