data_image0
_chemical_formula_structural       Na10W2N2O8
_chemical_formula_sum              "Na10 W2 N2 O8"
_cell_length_a       5.78929102159159
_cell_length_b       5.78929102159159
_cell_length_c       10.771975
_cell_angle_alpha    90.0
_cell_angle_beta     90.0
_cell_angle_gamma    119.33674410443054

_space_group_name_H-M_alt    "P 1"
_space_group_IT_number       1

loop_
  _space_group_symop_operation_xyz
  'x, y, z'

loop_
  _atom_site_type_symbol
  _atom_site_label
  _atom_site_symmetry_multiplicity
  _atom_site_fract_x
  _atom_site_fract_y
  _atom_site_fract_z
  _atom_site_occupancy
  Na  Na1       1.0  0.46547800000000006  0.8361070000000002  0.7591549999999999  1.0000
  Na  Na2       1.0  0.176082  0.79309  0.009146  1.0000
  Na  Na3       1.0  0.823918  0.20690999999999998  0.509146  1.0000
  Na  Na4       1.0  0.16389300000000004  0.534522  0.25915499999999997  1.0000
  Na  Na5       1.0  0.428577  0.428577  0.025713999999999997  1.0000
  Na  Na6       1.0  0.571423  0.571423  0.525714  1.0000
  Na  Na7       1.0  0.836107  0.46547799999999995  0.7591549999999999  1.0000
  Na  Na8       1.0  0.20690999999999998  0.823918  0.509146  1.0000
  Na  Na9       1.0  0.79309  0.17608199999999996  0.009146  1.0000
  Na  Na10      1.0  0.534522  0.163893  0.25915499999999997  1.0000
  W   W1        1.0  0.208197  0.208197  0.747808  1.0000
  W   W2        1.0  0.791803  0.791803  0.24780799999999997  1.0000
  N   N1        1.0  0.09756  0.09756  0.22322  1.0000
  N   N2        1.0  0.90244  0.90244  0.72322  1.0000
  O   O1        1.0  0.18782200000000004  0.46184400000000003  0.631397  1.0000
  O   O2        1.0  0.812178  0.538156  0.131397  1.0000
  O   O3        1.0  0.144058  0.416072  0.8769309999999999  1.0000
  O   O4        1.0  0.5381560000000001  0.8121780000000001  0.131397  1.0000
  O   O5        1.0  0.461844  0.18782200000000002  0.631397  1.0000
  O   O6        1.0  0.416072  0.14405799999999996  0.8769309999999999  1.0000
  O   O7        1.0  0.5839280000000001  0.8559420000000001  0.37693099999999996  1.0000
  O   O8        1.0  0.855942  0.583928  0.37693099999999996  1.0000
