data_image0
_chemical_formula_structural       K8Mo4S8O8
_chemical_formula_sum              "K8 Mo4 S8 O8"
_cell_length_a       8.401962
_cell_length_b       6.686818
_cell_length_c       13.918160804756713
_cell_angle_alpha    65.336299161084
_cell_angle_beta     90.0
_cell_angle_gamma    90.0

_space_group_name_H-M_alt    "P 1"
_space_group_IT_number       1

loop_
  _space_group_symop_operation_xyz
  'x, y, z'

loop_
  _atom_site_type_symbol
  _atom_site_label
  _atom_site_symmetry_multiplicity
  _atom_site_fract_x
  _atom_site_fract_y
  _atom_site_fract_z
  _atom_site_occupancy
  K   K1        1.0  0.684375  0.6726850000000001  0.051142  1.0000
  K   K2        1.0  0.184375  0.3273150000000001  0.448858  1.0000
  K   K3        1.0  0.315625  0.327315  0.948858  1.0000
  K   K4        1.0  0.815625  0.672685  0.551142  1.0000
  K   K5        1.0  0.481653  0.848561  0.298675  1.0000
  K   K6        1.0  0.9816530000000001  0.151439  0.201325  1.0000
  K   K7        1.0  0.518347  0.15143900000000005  0.701325  1.0000
  K   K8        1.0  0.018347  0.848561  0.798675  1.0000
  Mo  Mo1       1.0  0.206912  0.7256400000000001  0.08408900000000001  1.0000
  Mo  Mo2       1.0  0.7069120000000001  0.27436  0.415911  1.0000
  Mo  Mo3       1.0  0.793088  0.27435999999999994  0.915911  1.0000
  Mo  Mo4       1.0  0.293088  0.7256399999999998  0.584089  1.0000
  S   S1        1.0  0.161497  0.8497990000000001  0.42885000000000006  1.0000
  S   S2        1.0  0.661497  0.15020100000000003  0.07115  1.0000
  S   S3        1.0  0.838503  0.15020100000000006  0.57115  1.0000
  S   S4        1.0  0.33850300000000005  0.8497990000000001  0.92885  1.0000
  S   S5        1.0  0.333024  0.42755000000000004  0.19882  1.0000
  S   S6        1.0  0.833024  0.57245  0.30118  1.0000
  S   S7        1.0  0.666976  0.57245  0.80118  1.0000
  S   S8        1.0  0.166976  0.4275500000000001  0.69882  1.0000
  O   O1        1.0  0.011986  0.6523649999999999  0.063418  1.0000
  O   O2        1.0  0.511986  0.34763499999999997  0.4365820000000001  1.0000
  O   O3        1.0  0.9880140000000001  0.34763499999999997  0.936582  1.0000
  O   O4        1.0  0.488014  0.6523649999999999  0.563418  1.0000
  O   O5        1.0  0.20714300000000002  0.9334550000000001  0.132542  1.0000
  O   O6        1.0  0.707143  0.066545  0.367458  1.0000
  O   O7        1.0  0.7928570000000001  0.06654499999999995  0.867458  1.0000
  O   O8        1.0  0.292857  0.933455  0.6325420000000002  1.0000
