data_image0
_chemical_formula_structural       K4Ge4Pb2S12
_chemical_formula_sum              "K4 Ge4 Pb2 S12"
_cell_length_a       8.706389331646788
_cell_length_b       8.706389331646788
_cell_length_c       9.153112912908373
_cell_angle_alpha    89.95415168215183
_cell_angle_beta     89.95415168215183
_cell_angle_gamma    114.12648425707613

_space_group_name_H-M_alt    "P 1"
_space_group_IT_number       1

loop_
  _space_group_symop_operation_xyz
  'x, y, z'

loop_
  _atom_site_type_symbol
  _atom_site_label
  _atom_site_symmetry_multiplicity
  _atom_site_fract_x
  _atom_site_fract_y
  _atom_site_fract_z
  _atom_site_occupancy
  K   K1        1.0  0.26364  0.538102  0.51826  1.0000
  K   K2        1.0  0.7363600000000001  0.46189800000000003  0.48174000000000006  1.0000
  K   K3        1.0  0.4618979999999999  0.7363599999999999  0.9817400000000001  1.0000
  K   K4        1.0  0.5381020000000001  0.26364  0.01826  1.0000
  Ge  Ge1       1.0  0.9762020000000001  0.655934  0.05929199999999999  1.0000
  Ge  Ge2       1.0  0.023798000000000017  0.344066  0.940708  1.0000
  Ge  Ge3       1.0  0.344066  0.023798  0.440708  1.0000
  Ge  Ge4       1.0  0.6559340000000001  0.9762020000000001  0.559292  1.0000
  Pb  Pb1       1.0  0.9886710000000001  0.011328999999999968  0.25  1.0000
  Pb  Pb2       1.0  0.011329000000000087  0.9886710000000001  0.75  1.0000
  S   S1        1.0  0.6537640000000002  0.7502270000000001  0.665305  1.0000
  S   S2        1.0  0.919484  0.521354  0.837349  1.0000
  S   S3        1.0  0.24977300000000002  0.346236  0.834695  1.0000
  S   S4        1.0  0.521354  0.9194839999999999  0.337349  1.0000
  S   S5        1.0  0.34623600000000004  0.24977300000000005  0.334695  1.0000
  S   S6        1.0  0.9107360000000002  0.17644900000000005  0.53807  1.0000
  S   S7        1.0  0.8235510000000001  0.08926399999999997  0.96193  1.0000
  S   S8        1.0  0.176449  0.910736  0.03807  1.0000
  S   S9        1.0  0.08051600000000003  0.47864600000000007  0.162651  1.0000
  S   S10       1.0  0.478646  0.08051600000000002  0.662651  1.0000
  S   S11       1.0  0.08926400000000001  0.823551  0.46193  1.0000
  S   S12       1.0  0.750227  0.6537639999999999  0.165305  1.0000
