data_image0
_chemical_formula_structural       Na9Os3O15
_chemical_formula_sum              "Na9 Os3 O15"
_cell_length_a       5.504574664346929
_cell_length_b       5.50453320769072
_cell_length_c       13.360120500368472
_cell_angle_alpha    90.0006726715994
_cell_angle_beta     90.00012936653481
_cell_angle_gamma    120.00383470993513

_space_group_name_H-M_alt    "P 1"
_space_group_IT_number       1

loop_
  _space_group_symop_operation_xyz
  'x, y, z'

loop_
  _atom_site_type_symbol
  _atom_site_label
  _atom_site_symmetry_multiplicity
  _atom_site_fract_x
  _atom_site_fract_y
  _atom_site_fract_z
  _atom_site_occupancy
  Na  Na1       1.0  0.9063239200000001  0.2899581900000001  0.91429614  1.0000
  Na  Na2       1.0  0.71004498  0.61636108  0.24765158000000004  1.0000
  Na  Na3       1.0  0.09362947000000006  0.38357384000000005  0.41903392000000006  1.0000
  Na  Na4       1.0  0.38357920000000006  0.09363261000000006  0.5809735800000001  1.0000
  Na  Na5       1.0  0.72754174  0.72750906  0.50001616  1.0000
  Na  Na6       1.0  0.61636825  0.71006028  0.75236028  1.0000
  Na  Na7       1.0  0.27250054  0.9999953  0.8333355700000001  1.0000
  Na  Na8       1.0  2.683000000000979e-05  0.27250891  0.16664961000000003  1.0000
  Na  Na9       1.0  0.28997165000000014  0.9063306300000001  0.08568364  1.0000
  Os  Os1       1.0  0.39007326  1.270999999998986e-05  0.33334803  1.0000
  Os  Os2       1.0  1.2000000000226545e-06  0.39007697  0.6666699500000001  1.0000
  Os  Os3       1.0  0.60993717  0.60993888  0.99998899  1.0000
  O   O1        1.0  0.4895583  0.83160289  0.9350723900000001  1.0000
  O   O2        1.0  1.2210000000099894e-05  0.7111847800000001  0.666667  1.0000
  O   O3        1.0  0.51047014  0.34205947  0.39826079  1.0000
  O   O4        1.0  0.6579328200000001  0.16842700000000008  0.73158411  1.0000
  O   O5        1.0  0.83735424  0.16026807  0.55884542  1.0000
  O   O6        1.0  0.16262836  0.32291942  0.7744898  1.0000
  O   O7        1.0  0.8316029  0.4895542  0.06490716  1.0000
  O   O8        1.0  0.8397239400000002  0.6770884700000002  0.8921634600000001  1.0000
  O   O9        1.0  0.32292106  0.16263878  0.2255123  1.0000
  O   O10       1.0  0.16025667000000007  0.8373490300000002  0.44116362  1.0000
  O   O11       1.0  0.7111750000000001  9.470000000047294e-06  0.33334371999999995  1.0000
  O   O12       1.0  0.16840264000000002  0.65791714  0.2684218  1.0000
  O   O13       1.0  0.34206387  0.51048828  0.60175142  1.0000
  O   O14       1.0  0.28881865  0.28881658  0.9999905100000002  1.0000
  O   O15       1.0  0.67707999  0.83971895  0.10782105  1.0000
