data_image0
_chemical_formula_structural       Sr8C8N12
_chemical_formula_sum              "Sr8 C8 N12"
_cell_length_a       10.190654653695464
_cell_length_b       10.190654653695464
_cell_length_c       6.931902
_cell_angle_alpha    90.0
_cell_angle_beta     90.0
_cell_angle_gamma    120.00000424390237

_space_group_name_H-M_alt    "P 1"
_space_group_IT_number       1

loop_
  _space_group_symop_operation_xyz
  'x, y, z'

loop_
  _atom_site_type_symbol
  _atom_site_label
  _atom_site_symmetry_multiplicity
  _atom_site_fract_x
  _atom_site_fract_y
  _atom_site_fract_z
  _atom_site_occupancy
  Sr  Sr1       1.0  0.333333  0.666667  0.75  1.0000
  Sr  Sr2       1.0  0.6666670000000001  0.333333  0.25  1.0000
  Sr  Sr3       1.0  0.197924  0.802076  0.25  1.0000
  Sr  Sr4       1.0  0.19792399999999996  0.3958479999999999  0.25  1.0000
  Sr  Sr5       1.0  0.604152  0.802076  0.25  1.0000
  Sr  Sr6       1.0  0.802076  0.19792399999999996  0.75  1.0000
  Sr  Sr7       1.0  0.8020759999999999  0.6041519999999999  0.75  1.0000
  Sr  Sr8       1.0  0.3958479999999999  0.19792399999999996  0.75  1.0000
  C   C1        1.0  0.5  0.5  0.5  1.0000
  C   C2        1.0  0.5  0.0  0.5  1.0000
  C   C3        1.0  0.0  0.5  0.5  1.0000
  C   C4        1.0  0.5  0.5  0.0  1.0000
  C   C5        1.0  0.5  0.0  0.0  1.0000
  C   C6        1.0  0.0  0.5  0.0  1.0000
  C   C7        1.0  0.0  0.0  0.25  1.0000
  C   C8        1.0  0.0  0.0  0.75  1.0000
  N   N1        1.0  0.569338  0.43066199999999993  0.528958  1.0000
  N   N2        1.0  0.569338  0.13867599999999994  0.528958  1.0000
  N   N3        1.0  0.8613240000000001  0.430662  0.528958  1.0000
  N   N4        1.0  0.43066200000000004  0.569338  0.471042  1.0000
  N   N5        1.0  0.43066200000000004  0.861324  0.471042  1.0000
  N   N6        1.0  0.13867600000000002  0.569338  0.471042  1.0000
  N   N7        1.0  0.43066200000000004  0.569338  0.028958  1.0000
  N   N8        1.0  0.43066200000000004  0.861324  0.028958  1.0000
  N   N9        1.0  0.13867600000000002  0.569338  0.028958  1.0000
  N   N10       1.0  0.569338  0.43066199999999993  0.971042  1.0000
  N   N11       1.0  0.569338  0.13867599999999994  0.971042  1.0000
  N   N12       1.0  0.8613240000000001  0.430662  0.971042  1.0000
