data_image0
_chemical_formula_structural       Li4Fe4P4O16
_chemical_formula_sum              "Li4 Fe4 P4 O16"
_cell_length_a       4.799315048472334
_cell_length_b       10.414403000030774
_cell_length_c       6.24350106244133
_cell_angle_alpha    90.00005873328162
_cell_angle_beta     89.98375488902187
_cell_angle_gamma    90.00028080277738

_space_group_name_H-M_alt    "P 1"
_space_group_IT_number       1

loop_
  _space_group_symop_operation_xyz
  'x, y, z'

loop_
  _atom_site_type_symbol
  _atom_site_label
  _atom_site_symmetry_multiplicity
  _atom_site_fract_x
  _atom_site_fract_y
  _atom_site_fract_z
  _atom_site_occupancy
  Li  Li1       1.0  0.49499899999999997  0.21285700000000002  0.750001  1.0000
  Li  Li2       1.0  0.994994  0.287142  0.250003  1.0000
  Li  Li3       1.0  0.005006  0.712857  0.749997  1.0000
  Li  Li4       1.0  0.505001  0.787142  0.25  1.0000
  Fe  Fe1       1.0  0.9999989999999999  0.999999  0.499994  1.0000
  Fe  Fe2       1.0  0.499994  0.5  7.999999999999995e-06  1.0000
  Fe  Fe3       1.0  2.9999999999999505e-06  2.0000000000000003e-06  0.9999990000000002  1.0000
  Fe  Fe4       1.0  0.500008  0.500005  0.4999990000000001  1.0000
  P   P1        1.0  0.42043899999999995  0.095988  0.24997400000000003  1.0000
  P   P2        1.0  0.920448  0.4040089999999999  0.7499740000000001  1.0000
  P   P3        1.0  0.079552  0.59599  0.2500260000000001  1.0000
  P   P4        1.0  0.5795599999999999  0.904011  0.750026  1.0000
  O   O1        1.0  0.712017  0.044742  0.749972  1.0000
  O   O2        1.0  0.21201999999999996  0.4552629999999999  0.24997600000000003  1.0000
  O   O3        1.0  0.787978  0.5447369999999999  0.7500240000000001  1.0000
  O   O4        1.0  0.287983  0.955258  0.250027  1.0000
  O   O5        1.0  0.745948  0.087705  0.24995700000000004  1.0000
  O   O6        1.0  0.24596199999999996  0.4122869999999999  0.7499620000000001  1.0000
  O   O7        1.0  0.754038  0.587713  0.250037  1.0000
  O   O8        1.0  0.25405099999999997  0.9122949999999999  0.7500409999999998  1.0000
  O   O9        1.0  0.30207699999999993  0.16010899999999997  0.04577200000000001  1.0000
  O   O10       1.0  0.3022  0.160091  0.454319  1.0000
  O   O11       1.0  0.802187  0.339904  0.9543159999999999  1.0000
  O   O12       1.0  0.8020839999999999  0.339895  0.5457710000000001  1.0000
  O   O13       1.0  0.19781  0.6600959999999999  0.045687  1.0000
  O   O14       1.0  0.197917  0.6601039999999999  0.4542280000000001  1.0000
  O   O15       1.0  0.697802  0.839908  0.545681  1.0000
  O   O16       1.0  0.6979219999999999  0.8398909999999999  0.954228  1.0000
