data_image0
_chemical_formula_structural       Lu2Ni12P7
_chemical_formula_sum              "Lu2 Ni12 P7"
_cell_length_a       8.935243322105645
_cell_length_b       8.93517014845936
_cell_length_c       3.630039470000045
_cell_angle_alpha    90.00001437194614
_cell_angle_beta     90.00000258648897
_cell_angle_gamma    119.99659741225624

_space_group_name_H-M_alt    "P 1"
_space_group_IT_number       1

loop_
  _space_group_symop_operation_xyz
  'x, y, z'

loop_
  _atom_site_type_symbol
  _atom_site_label
  _atom_site_symmetry_multiplicity
  _atom_site_fract_x
  _atom_site_fract_y
  _atom_site_fract_z
  _atom_site_occupancy
  Lu  Lu1       1.0  0.33335744999999983  0.6666696699999999  3.399999999999999e-07  1.0000
  Lu  Lu2       1.0  0.6667748  0.33340269999999994  0.5000007  1.0000
  Ni  Ni1       1.0  0.15292062999999995  0.27544177999999997  0.9999997  1.0000
  Ni  Ni2       1.0  0.7245647399999999  0.8775198399999999  0.9999997  1.0000
  Ni  Ni3       1.0  0.12241600999999994  0.8469816999999998  2.1e-07  1.0000
  Ni  Ni4       1.0  0.38178824999999994  0.43329124999999996  0.49999953  1.0000
  Ni  Ni5       1.0  0.5668239999999999  0.9485279199999999  0.50000003  1.0000
  Ni  Ni6       1.0  0.05140797999999989  0.6181989899999999  0.49999999  1.0000
  Ni  Ni7       1.0  0.43469386  0.06284324000000001  1.06e-06  1.0000
  Ni  Ni8       1.0  0.93710827  0.37179856999999994  0.99999991  1.0000
  Ni  Ni9       1.0  0.6282548799999998  0.5653863399999999  7.1e-07  1.0000
  Ni  Ni10      1.0  0.21576265000000003  0.09374670000000002  0.49999960000000004  1.0000
  Ni  Ni11      1.0  0.9061847899999999  0.12202335999999991  0.49999838  1.0000
  Ni  Ni12      1.0  0.87791362  0.78413715  0.50000065  1.0000
  P   P1        1.0  0.11263901999999998  0.40678951  0.49999961  1.0000
  P   P2        1.0  0.59322605  0.70587859  0.5000001600000001  1.0000
  P   P3        1.0  0.29413851  0.8873303  0.50000047  1.0000
  P   P4        1.0  0.40932143  0.29543671  0.99999973  1.0000
  P   P5        1.0  0.70461961  0.11389977999999995  0.9999998  1.0000
  P   P6        1.0  0.88609614  0.59069125  0.99999992  1.0000
  P   P7        1.0  0.99998631  2.6600000000000016e-06  0.99999977  1.0000
