data_image0
_chemical_formula_structural       Te12Ir2Br6
_chemical_formula_sum              "Te12 Ir2 Br6"
_cell_length_a       9.300186275527603
_cell_length_b       9.300186275527603
_cell_length_c       9.300186607373712
_cell_angle_alpha    108.11488520567738
_cell_angle_beta     108.11488520567738
_cell_angle_gamma    108.11488402854181

_space_group_name_H-M_alt    "P 1"
_space_group_IT_number       1

loop_
  _space_group_symop_operation_xyz
  'x, y, z'

loop_
  _atom_site_type_symbol
  _atom_site_label
  _atom_site_symmetry_multiplicity
  _atom_site_fract_x
  _atom_site_fract_y
  _atom_site_fract_z
  _atom_site_occupancy
  Te  Te1       1.0  0.9266704  0.17007713999999993  0.18881300999999998  1.0000
  Te  Te2       1.0  0.1888130100000001  0.9266704000000001  0.17007714000000002  1.0000
  Te  Te3       1.0  0.17007714  0.18881301  0.9266704  1.0000
  Te  Te4       1.0  0.6888130099999998  0.67007714  0.4266704  1.0000
  Te  Te5       1.0  0.42667039999999984  0.6888130099999998  0.6700771399999998  1.0000
  Te  Te6       1.0  0.67007714  0.4266704  0.68881301  1.0000
  Te  Te7       1.0  0.07332959999999987  0.8299228599999999  0.81118699  1.0000
  Te  Te8       1.0  0.81118699  0.07332959999999995  0.8299228599999999  1.0000
  Te  Te9       1.0  0.8299228599999999  0.8111869899999999  0.07332959999999998  1.0000
  Te  Te10      1.0  0.31118699  0.32992286  0.5733296  1.0000
  Te  Te11      1.0  0.5733295999999999  0.31118698999999994  0.32992285999999993  1.0000
  Te  Te12      1.0  0.3299228599999999  0.5733295999999999  0.31118699  1.0000
  Ir  Ir1       1.0  0.24999999999999997  0.24999999999999997  0.25  1.0000
  Ir  Ir2       1.0  0.7499999999999999  0.7499999999999999  0.75  1.0000
  Br  Br1       1.0  0.9832516799999999  0.5167483199999999  0.25  1.0000
  Br  Br2       1.0  0.24999999999999994  0.9832516799999999  0.5167483199999999  1.0000
  Br  Br3       1.0  0.51674832  0.24999999999999997  0.98325168  1.0000
  Br  Br4       1.0  0.75  0.01674831999999994  0.48325168  1.0000
  Br  Br5       1.0  0.4832516799999999  0.7499999999999999  0.016748320000000004  1.0000
  Br  Br6       1.0  0.01674832000000008  0.4832516800000001  0.7500000000000001  1.0000
