data_image0
_chemical_formula_structural       K2Tm4Cu6Se10
_chemical_formula_sum              "K2 Tm4 Cu6 Se10"
_cell_length_a       7.4260647636306585
_cell_length_b       7.4260647636306585
_cell_length_c       16.75390545
_cell_angle_alpha    90.0
_cell_angle_beta     90.0
_cell_angle_gamma    148.2514057056092

_space_group_name_H-M_alt    "P 1"
_space_group_IT_number       1

loop_
  _space_group_symop_operation_xyz
  'x, y, z'

loop_
  _atom_site_type_symbol
  _atom_site_label
  _atom_site_symmetry_multiplicity
  _atom_site_fract_x
  _atom_site_fract_y
  _atom_site_fract_z
  _atom_site_occupancy
  K   K1        1.0  0.9386653100000001  0.06133468999999997  0.7499999999999999  1.0000
  K   K2        1.0  0.061334690000000004  0.93866531  0.25  1.0000
  Tm  Tm1       1.0  0.80701226  0.19298773999999996  0.40644865  1.0000
  Tm  Tm2       1.0  0.19298774000000005  0.80701226  0.9064486499999999  1.0000
  Tm  Tm3       1.0  0.19298774000000005  0.80701226  0.59355135  1.0000
  Tm  Tm4       1.0  0.80701226  0.19298773999999996  0.09355135  1.0000
  Cu  Cu1       1.0  0.58246176  0.41753823999999995  0.47064356999999996  1.0000
  Cu  Cu2       1.0  0.4175382399999999  0.5824617599999999  0.97064357  1.0000
  Cu  Cu3       1.0  0.4175382399999999  0.5824617599999999  0.52935643  1.0000
  Cu  Cu4       1.0  0.58246176  0.41753823999999995  0.02935643  1.0000
  Cu  Cu5       1.0  0.3404068800000001  0.65959312  0.25  1.0000
  Cu  Cu6       1.0  0.65959312  0.34040687999999997  0.7499999999999999  1.0000
  Se  Se1       1.0  0.7491364800000001  0.25086351999999995  0.25  1.0000
  Se  Se2       1.0  0.25086352  0.74913648  0.7499999999999999  1.0000
  Se  Se3       1.0  0.43931599  0.56068401  0.38062833  1.0000
  Se  Se4       1.0  0.56068401  0.43931599  0.8806283299999998  1.0000
  Se  Se5       1.0  0.56068401  0.43931599  0.61937167  1.0000
  Se  Se6       1.0  0.43931599  0.56068401  0.11937167  1.0000
  Se  Se7       1.0  0.8346134  0.1653866  0.57099667  1.0000
  Se  Se8       1.0  0.1653866  0.8346134  0.07099667  1.0000
  Se  Se9       1.0  0.1653866  0.8346134  0.42900333  1.0000
  Se  Se10      1.0  0.8346134  0.1653866  0.92900333  1.0000
