data_image0
_chemical_formula_structural       Lu12Al8
_chemical_formula_sum              "Lu12 Al8"
_cell_length_a       7.43284314
_cell_length_b       7.997084170008854
_cell_length_c       7.997084170008854
_cell_angle_alpha    89.9998294829061
_cell_angle_beta     90.0
_cell_angle_gamma    90.0

_space_group_name_H-M_alt    "P 1"
_space_group_IT_number       1

loop_
  _space_group_symop_operation_xyz
  'x, y, z'

loop_
  _atom_site_type_symbol
  _atom_site_label
  _atom_site_symmetry_multiplicity
  _atom_site_fract_x
  _atom_site_fract_y
  _atom_site_fract_z
  _atom_site_occupancy
  Lu  Lu1       1.0  0.24999941  0.0  0.5  1.0000
  Lu  Lu2       1.0  0.75000059  0.0  0.5  1.0000
  Lu  Lu3       1.0  0.24999941  0.5  0.0  1.0000
  Lu  Lu4       1.0  0.75000059  0.5  0.0  1.0000
  Lu  Lu5       1.0  0.0  0.34826758  0.34826758  1.0000
  Lu  Lu6       1.0  0.5  0.15173152  0.84826848  1.0000
  Lu  Lu7       1.0  0.5  0.84826848  0.15173151999999998  1.0000
  Lu  Lu8       1.0  0.0  0.65173242  0.65173242  1.0000
  Lu  Lu9       1.0  0.0  0.20209485  0.79790515  1.0000
  Lu  Lu10      1.0  0.5  0.70208602  0.7020860200000001  1.0000
  Lu  Lu11      1.0  0.5  0.29791398  0.29791398  1.0000
  Lu  Lu12      1.0  0.0  0.79790515  0.20209485  1.0000
  Al  Al1       1.0  0.1989653  0.11917876  0.11917876  1.0000
  Al  Al2       1.0  0.69901748  0.38084264999999995  0.61915735  1.0000
  Al  Al3       1.0  0.69901748  0.6191573499999999  0.38084264999999995  1.0000
  Al  Al4       1.0  0.1989653  0.88082124  0.8808212399999998  1.0000
  Al  Al5       1.0  0.30098252  0.6191573499999999  0.38084264999999995  1.0000
  Al  Al6       1.0  0.30098252  0.38084264999999995  0.61915735  1.0000
  Al  Al7       1.0  0.8010346999999999  0.11917876  0.11917876  1.0000
  Al  Al8       1.0  0.8010346999999999  0.88082124  0.8808212399999998  1.0000
