data_image0
_chemical_formula_structural       Mg4B8Ru10
_chemical_formula_sum              "Mg4 B8 Ru10"
_cell_length_a       2.9498770700000003
_cell_length_b       8.359451670338062
_cell_length_c       10.002888680404164
_cell_angle_alpha    89.99896966053426
_cell_angle_beta     90.00000073214278
_cell_angle_gamma    90.00000119955777

_space_group_name_H-M_alt    "P 1"
_space_group_IT_number       1

loop_
  _space_group_symop_operation_xyz
  'x, y, z'

loop_
  _atom_site_type_symbol
  _atom_site_label
  _atom_site_symmetry_multiplicity
  _atom_site_fract_x
  _atom_site_fract_y
  _atom_site_fract_z
  _atom_site_occupancy
  Mg  Mg1       1.0  0.5000001000000001  0.6469032500000002  0.81487222  1.0000
  Mg  Mg2       1.0  0.49999996  0.35309099000000005  0.18512221000000004  1.0000
  Mg  Mg3       1.0  0.49999999  0.14689940000000004  0.6850872700000001  1.0000
  Mg  Mg4       1.0  0.49999982000000004  0.85310265  0.31491873000000004  1.0000
  B   B1        1.0  0.49999991  0.8522270600000001  0.60265316  1.0000
  B   B2        1.0  0.49999981000000004  0.14778348000000002  0.39733288000000005  1.0000
  B   B3        1.0  0.5000002  0.35222614000000013  0.8973428600000001  1.0000
  B   B4        1.0  0.50000017  0.6477641700000001  0.10266137  1.0000
  B   B5        1.0  0.5  0.9601675800000001  0.9108132100000002  1.0000
  B   B6        1.0  0.4999998600000001  0.0398475  0.08919151  1.0000
  B   B7        1.0  0.50000014  0.46015094000000006  0.58918297  1.0000
  B   B8        1.0  0.50000008  0.53982825  0.41081479000000004  1.0000
  Ru  Ru1       1.0  5e-08  0.39430162000000013  0.73742148  1.0000
  Ru  Ru2       1.0  3.0000000000000004e-08  0.6056750300000001  0.26257315000000003  1.0000
  Ru  Ru3       1.0  0.99999999  0.8942801300000001  0.7625026700000002  1.0000
  Ru  Ru4       1.0  0.99999988  0.10572911000000002  0.23749884  1.0000
  Ru  Ru5       1.0  0.99999991  1.633e-05  0.49998874000000004  1.0000
  Ru  Ru6       1.0  4.000000000000001e-08  0.4999977700000001  1.638e-05  1.0000
  Ru  Ru7       1.0  1e-08  0.65546182  0.54787045  1.0000
  Ru  Ru8       1.0  2e-08  0.34453414  0.45210249  1.0000
  Ru  Ru9       1.0  5e-08  0.15547339000000002  0.9521218200000001  1.0000
  Ru  Ru10      1.0  0.99999997  0.8445402800000001  0.0479098  1.0000
