data_image0
_chemical_formula_structural       Lu8In4Au8
_chemical_formula_sum              "Lu8 In4 Au8"
_cell_length_a       7.924381
_cell_length_b       7.924381
_cell_length_c       7.192029
_cell_angle_alpha    90.0
_cell_angle_beta     90.0
_cell_angle_gamma    90.0

_space_group_name_H-M_alt    "P 1"
_space_group_IT_number       1

loop_
  _space_group_symop_operation_xyz
  'x, y, z'

loop_
  _atom_site_type_symbol
  _atom_site_label
  _atom_site_symmetry_multiplicity
  _atom_site_fract_x
  _atom_site_fract_y
  _atom_site_fract_z
  _atom_site_occupancy
  Lu  Lu1       1.0  0.843303  0.15669699999999998  0.5  1.0000
  Lu  Lu2       1.0  0.15669699999999998  0.843303  0.5  1.0000
  Lu  Lu3       1.0  0.34330299999999997  0.34330299999999997  0.0  1.0000
  Lu  Lu4       1.0  0.6566969999999999  0.6566969999999999  0.0  1.0000
  Lu  Lu5       1.0  0.68296  0.68296  0.5  1.0000
  Lu  Lu6       1.0  0.31703999999999993  0.31703999999999993  0.5  1.0000
  Lu  Lu7       1.0  0.18296099999999998  0.8170399999999999  0.0  1.0000
  Lu  Lu8       1.0  0.8170399999999999  0.18296099999999998  0.0  1.0000
  In  In1       1.0  0.49999999999999994  0.0  0.25  1.0000
  In  In2       1.0  0.0  0.49999999999999994  0.7500000000000001  1.0000
  In  In3       1.0  0.49999999999999994  0.0  0.7500000000000001  1.0000
  In  In4       1.0  0.0  0.49999999999999994  0.25  1.0000
  Au  Au1       1.0  0.629464  0.370536  0.275335  1.0000
  Au  Au2       1.0  0.370536  0.629464  0.275335  1.0000
  Au  Au3       1.0  0.12946399999999997  0.12946399999999997  0.775335  1.0000
  Au  Au4       1.0  0.8705359999999999  0.8705359999999999  0.775335  1.0000
  Au  Au5       1.0  0.370536  0.629464  0.7246650000000001  1.0000
  Au  Au6       1.0  0.629464  0.370536  0.7246650000000001  1.0000
  Au  Au7       1.0  0.8705359999999999  0.8705359999999999  0.224665  1.0000
  Au  Au8       1.0  0.12946399999999997  0.12946399999999997  0.224665  1.0000
