data_image0
_chemical_formula_structural       Ta6Se18
_chemical_formula_sum              "Ta6 Se18"
_cell_length_a       3.50723085
_cell_length_b       10.300787835993575
_cell_length_c       15.834285581527888
_cell_angle_alpha    108.8582261997303
_cell_angle_beta     90.0
_cell_angle_gamma    90.0

_space_group_name_H-M_alt    "P 1"
_space_group_IT_number       1

loop_
  _space_group_symop_operation_xyz
  'x, y, z'

loop_
  _atom_site_type_symbol
  _atom_site_label
  _atom_site_symmetry_multiplicity
  _atom_site_fract_x
  _atom_site_fract_y
  _atom_site_fract_z
  _atom_site_occupancy
  Ta  Ta1       1.0  0.25  0.5329057699999998  0.8839631999999998  1.0000
  Ta  Ta2       1.0  0.7500000000000001  0.46709423000000005  0.11603679999999998  1.0000
  Ta  Ta3       1.0  0.7500000000000001  0.11539532999999995  0.7928526499999999  1.0000
  Ta  Ta4       1.0  0.25  0.8846046700000001  0.20714734999999998  1.0000
  Ta  Ta5       1.0  0.25  0.8393573599999998  0.5398536199999999  1.0000
  Ta  Ta6       1.0  0.7500000000000001  0.16064264  0.46014637999999997  1.0000
  Se  Se1       1.0  0.7500000000000001  0.3793847599999998  0.9328838299999999  1.0000
  Se  Se2       1.0  0.25  0.62061524  0.06711617  1.0000
  Se  Se3       1.0  0.7500000000000001  0.73839591  0.9179365599999999  1.0000
  Se  Se4       1.0  0.25  0.26160409  0.08206343999999999  1.0000
  Se  Se5       1.0  0.7500000000000001  0.5616456499999999  0.7667979299999998  1.0000
  Se  Se6       1.0  0.25  0.43835434999999995  0.23320207  1.0000
  Se  Se7       1.0  0.25  0.08745730999999987  0.9098595499999999  1.0000
  Se  Se8       1.0  0.7500000000000001  0.91254269  0.09014045000000001  1.0000
  Se  Se9       1.0  0.25  0.91506375  0.72235005  1.0000
  Se  Se10      1.0  0.7500000000000001  0.08493624999999992  0.2776499499999999  1.0000
  Se  Se11      1.0  0.25  0.27815490999999987  0.7525580899999998  1.0000
  Se  Se12      1.0  0.7500000000000001  0.72184509  0.24744190999999996  1.0000
  Se  Se13      1.0  0.7500000000000001  0.66983046  0.57492074  1.0000
  Se  Se14      1.0  0.25  0.3301695399999999  0.42507925999999996  1.0000
  Se  Se15      1.0  0.7500000000000001  0.039180849999999864  0.5921949099999999  1.0000
  Se  Se16      1.0  0.25  0.96081915  0.40780509  1.0000
  Se  Se17      1.0  0.7500000000000001  0.67916659  0.4267878399999999  1.0000
  Se  Se18      1.0  0.25  0.32083340999999993  0.5732121599999999  1.0000
