data_image0
_chemical_formula_structural       Hg8N8Cl8
_chemical_formula_sum              "Hg8 N8 Cl8"
_cell_length_a       6.844253
_cell_length_b       7.700857
_cell_length_c       10.688506
_cell_angle_alpha    90.0
_cell_angle_beta     90.0
_cell_angle_gamma    90.0

_space_group_name_H-M_alt    "P 1"
_space_group_IT_number       1

loop_
  _space_group_symop_operation_xyz
  'x, y, z'

loop_
  _atom_site_type_symbol
  _atom_site_label
  _atom_site_symmetry_multiplicity
  _atom_site_fract_x
  _atom_site_fract_y
  _atom_site_fract_z
  _atom_site_occupancy
  Hg  Hg1       1.0  0.0  0.5  0.5  1.0000
  Hg  Hg2       1.0  0.49999999999999994  0.0  0.0  1.0000
  Hg  Hg3       1.0  0.49999999999999994  0.5  0.5  1.0000
  Hg  Hg4       1.0  0.0  0.0  0.0  1.0000
  Hg  Hg5       1.0  0.0  0.5  0.0  1.0000
  Hg  Hg6       1.0  0.49999999999999994  0.0  0.5  1.0000
  Hg  Hg7       1.0  0.49999999999999994  0.5  0.0  1.0000
  Hg  Hg8       1.0  0.0  0.0  0.5  1.0000
  N   N1        1.0  0.24999999999999997  0.627281  0.427593  1.0000
  N   N2        1.0  0.24999999999999997  0.127281  0.072407  1.0000
  N   N3        1.0  0.7499999999999999  0.3727190000000001  0.572407  1.0000
  N   N4        1.0  0.7499999999999999  0.8727190000000001  0.927593  1.0000
  N   N5        1.0  0.24999999999999997  0.9543650000000001  0.611095  1.0000
  N   N6        1.0  0.24999999999999997  0.454365  0.888905  1.0000
  N   N7        1.0  0.7499999999999999  0.04563500000000001  0.388905  1.0000
  N   N8        1.0  0.7499999999999999  0.5456350000000001  0.111095  1.0000
  Cl  Cl1       1.0  0.24999999999999997  0.6149160000000001  0.261457  1.0000
  Cl  Cl2       1.0  0.24999999999999997  0.114916  0.23854299999999998  1.0000
  Cl  Cl3       1.0  0.7499999999999999  0.385084  0.7385429999999998  1.0000
  Cl  Cl4       1.0  0.7499999999999999  0.8850840000000001  0.761457  1.0000
  Cl  Cl5       1.0  0.24999999999999997  0.6128240000000001  0.766064  1.0000
  Cl  Cl6       1.0  0.24999999999999997  0.11282400000000001  0.733936  1.0000
  Cl  Cl7       1.0  0.7499999999999999  0.3871760000000001  0.233936  1.0000
  Cl  Cl8       1.0  0.7499999999999999  0.8871760000000001  0.266064  1.0000
