data_image0
_chemical_formula_structural       Cs4H4S4O8
_chemical_formula_sum              "Cs4 H4 S4 O8"
_cell_length_a       5.817371
_cell_length_b       6.411326074356614
_cell_length_c       12.038703921785974
_cell_angle_alpha    93.7344795294116
_cell_angle_beta     90.0
_cell_angle_gamma    116.97998093780937

_space_group_name_H-M_alt    "P 1"
_space_group_IT_number       1

loop_
  _space_group_symop_operation_xyz
  'x, y, z'

loop_
  _atom_site_type_symbol
  _atom_site_label
  _atom_site_symmetry_multiplicity
  _atom_site_fract_x
  _atom_site_fract_y
  _atom_site_fract_z
  _atom_site_occupancy
  Cs  Cs1       1.0  0.226645  0.453291  0.343985  1.0000
  Cs  Cs2       1.0  0.773355  0.5467089999999999  0.656015  1.0000
  Cs  Cs3       1.0  0.853449  0.7068979999999999  0.081122  1.0000
  Cs  Cs4       1.0  0.146551  0.293102  0.9188780000000001  1.0000
  H   H1        1.0  0.805918  0.882384  0.37189300000000003  1.0000
  H   H2        1.0  0.07646599999999999  0.882384  0.37189300000000003  1.0000
  H   H3        1.0  0.194082  0.11761600000000001  0.6281070000000001  1.0000
  H   H4        1.0  0.923534  0.11761600000000001  0.6281070000000001  1.0000
  S   S1        1.0  0.540945  0.081891  0.35988100000000006  1.0000
  S   S2        1.0  0.45905499999999994  0.9181089999999998  0.640119  1.0000
  S   S3        1.0  0.533247  0.066493  0.188745  1.0000
  S   S4        1.0  0.46675299999999986  0.9335069999999999  0.811255  1.0000
  O   O1        1.0  0.8887989999999999  0.777598  0.3729370000000001  1.0000
  O   O2        1.0  0.11120099999999998  0.22240199999999996  0.627063  1.0000
  O   O3        1.0  0.80377  0.185612  0.15211  1.0000
  O   O4        1.0  0.381842  0.185612  0.15211  1.0000
  O   O5        1.0  0.19622999999999993  0.8143879999999999  0.84789  1.0000
  O   O6        1.0  0.6181579999999999  0.8143879999999999  0.84789  1.0000
  O   O7        1.0  0.406416  0.812831  0.148565  1.0000
  O   O8        1.0  0.593584  0.18716900000000003  0.8514350000000002  1.0000
