data_image0
_chemical_formula_structural       Sr4Sn4S12
_chemical_formula_sum              "Sr4 Sn4 S12"
_cell_length_a       3.89318425
_cell_length_b       8.30673434
_cell_length_c       14.2045019
_cell_angle_alpha    90.0
_cell_angle_beta     90.0
_cell_angle_gamma    90.0

_space_group_name_H-M_alt    "P 1"
_space_group_IT_number       1

loop_
  _space_group_symop_operation_xyz
  'x, y, z'

loop_
  _atom_site_type_symbol
  _atom_site_label
  _atom_site_symmetry_multiplicity
  _atom_site_fract_x
  _atom_site_fract_y
  _atom_site_fract_z
  _atom_site_occupancy
  Sr  Sr1       1.0  0.25  0.92144579  0.17634532  1.0000
  Sr  Sr2       1.0  0.7499999999999999  0.07855421  0.8236546800000001  1.0000
  Sr  Sr3       1.0  0.7499999999999999  0.57855421  0.67634532  1.0000
  Sr  Sr4       1.0  0.25  0.42144579  0.32365468  1.0000
  Sn  Sn1       1.0  0.25  0.67215771  0.94180441  1.0000
  Sn  Sn2       1.0  0.7499999999999999  0.32784229000000004  0.058195590000000005  1.0000
  Sn  Sn3       1.0  0.7499999999999999  0.82784229  0.44180441000000004  1.0000
  Sn  Sn4       1.0  0.25  0.17215771  0.5581955900000001  1.0000
  S   S1        1.0  0.25  0.52721967  0.10432809  1.0000
  S   S2        1.0  0.7499999999999999  0.4727803300000001  0.89567191  1.0000
  S   S3        1.0  0.7499999999999999  0.9727803299999999  0.6043280900000001  1.0000
  S   S4        1.0  0.25  0.027219670000000005  0.39567191000000007  1.0000
  S   S5        1.0  0.25  0.6527044200000001  0.5044053000000001  1.0000
  S   S6        1.0  0.7499999999999999  0.34729558  0.49559470000000005  1.0000
  S   S7        1.0  0.7499999999999999  0.84729558  0.0044053  1.0000
  S   S8        1.0  0.25  0.15270442  0.9955947000000002  1.0000
  S   S9        1.0  0.25  0.79807352  0.78546545  1.0000
  S   S10       1.0  0.7499999999999999  0.20192648  0.21453455  1.0000
  S   S11       1.0  0.7499999999999999  0.70192648  0.28546545  1.0000
  S   S12       1.0  0.25  0.29807352  0.7145345500000001  1.0000
