data_image0
_chemical_formula_structural       Nd6Ir2O14
_chemical_formula_sum              "Nd6 Ir2 O14"
_cell_length_a       6.620109401514356
_cell_length_b       6.620109401514356
_cell_length_c       7.54129676
_cell_angle_alpha    90.0
_cell_angle_beta     90.0
_cell_angle_gamma    111.91291147586229

_space_group_name_H-M_alt    "P 1"
_space_group_IT_number       1

loop_
  _space_group_symop_operation_xyz
  'x, y, z'

loop_
  _atom_site_type_symbol
  _atom_site_label
  _atom_site_symmetry_multiplicity
  _atom_site_fract_x
  _atom_site_fract_y
  _atom_site_fract_z
  _atom_site_occupancy
  Nd  Nd1       1.0  0.0  0.0  0.0  1.0000
  Nd  Nd2       1.0  0.0  0.0  0.5  1.0000
  Nd  Nd3       1.0  0.47178642000000004  0.91449439  0.7499999999999999  1.0000
  Nd  Nd4       1.0  0.5282135800000001  0.08550561000000001  0.25  1.0000
  Nd  Nd5       1.0  0.9144943900000001  0.47178642  0.7499999999999999  1.0000
  Nd  Nd6       1.0  0.08550561  0.52821358  0.25  1.0000
  Ir  Ir1       1.0  0.5  0.5  0.0  1.0000
  Ir  Ir2       1.0  0.5  0.5  0.5  1.0000
  O   O1        1.0  0.59343804  0.59343804  0.7499999999999999  1.0000
  O   O2        1.0  0.40656196  0.40656196  0.25  1.0000
  O   O3        1.0  0.84291264  0.10535601000000001  0.7499999999999999  1.0000
  O   O4        1.0  0.1570873600000001  0.8946439900000001  0.25  1.0000
  O   O5        1.0  0.10535601000000003  0.84291264  0.7499999999999999  1.0000
  O   O6        1.0  0.89464399  0.15708735999999993  0.25  1.0000
  O   O7        1.0  0.44221157000000005  0.18870939999999997  0.9593979199999999  1.0000
  O   O8        1.0  0.55778843  0.8112906  0.45939791999999996  1.0000
  O   O9        1.0  0.1887094  0.44221157  0.9593979199999999  1.0000
  O   O10       1.0  0.8112906000000001  0.55778843  0.45939791999999996  1.0000
  O   O11       1.0  0.44221157000000005  0.18870939999999997  0.54060208  1.0000
  O   O12       1.0  0.55778843  0.8112906  0.04060207999999999  1.0000
  O   O13       1.0  0.8112906000000001  0.55778843  0.04060207999999999  1.0000
  O   O14       1.0  0.1887094  0.44221157  0.54060208  1.0000
