data_image0
_chemical_formula_structural       Cs4Pb4Br12
_chemical_formula_sum              "Cs4 Pb4 Br12"
_cell_length_a       8.10107841
_cell_length_b       8.45384704
_cell_length_c       11.87891123
_cell_angle_alpha    90.0
_cell_angle_beta     90.0
_cell_angle_gamma    90.0

_space_group_name_H-M_alt    "P 1"
_space_group_IT_number       1

loop_
  _space_group_symop_operation_xyz
  'x, y, z'

loop_
  _atom_site_type_symbol
  _atom_site_label
  _atom_site_symmetry_multiplicity
  _atom_site_fract_x
  _atom_site_fract_y
  _atom_site_fract_z
  _atom_site_occupancy
  Cs  Cs1       1.0  0.51945212  0.43983653  0.24999999999999997  1.0000
  Cs  Cs2       1.0  0.019452120000000003  0.060163470000000004  0.75  1.0000
  Cs  Cs3       1.0  0.98054788  0.93983653  0.24999999999999997  1.0000
  Cs  Cs4       1.0  0.48054788  0.56016347  0.75  1.0000
  Pb  Pb1       1.0  0.5  0.0  0.49999999999999994  1.0000
  Pb  Pb2       1.0  0.0  0.5  0.0  1.0000
  Pb  Pb3       1.0  0.0  0.5  0.49999999999999994  1.0000
  Pb  Pb4       1.0  0.5  0.0  0.0  1.0000
  Br  Br1       1.0  0.55966548  0.99374055  0.75  1.0000
  Br  Br2       1.0  0.05966548  0.50625945  0.24999999999999997  1.0000
  Br  Br3       1.0  0.80279189  0.20102217  0.03170128  1.0000
  Br  Br4       1.0  0.19720811  0.79897783  0.9682987199999998  1.0000
  Br  Br5       1.0  0.30279189  0.29897783  0.9682987199999998  1.0000
  Br  Br6       1.0  0.69720811  0.70102217  0.03170128  1.0000
  Br  Br7       1.0  0.30279189  0.29897783  0.53170128  1.0000
  Br  Br8       1.0  0.69720811  0.70102217  0.46829872  1.0000
  Br  Br9       1.0  0.19720811  0.79897783  0.53170128  1.0000
  Br  Br10      1.0  0.80279189  0.20102217  0.46829872  1.0000
  Br  Br11      1.0  0.94033452  0.49374055  0.75  1.0000
  Br  Br12      1.0  0.44033452  0.00625945  0.24999999999999997  1.0000
