data_image0
_chemical_formula_structural       K5MoC7N7O
_chemical_formula_sum              "K5 Mo1 C7 N7 O1"
_cell_length_a       7.873301
_cell_length_b       7.9274426125061295
_cell_length_c       8.137008925052559
_cell_angle_alpha    107.97024862705241
_cell_angle_beta     109.2560509290558
_cell_angle_gamma    108.16771294482147

_space_group_name_H-M_alt    "P 1"
_space_group_IT_number       1

loop_
  _space_group_symop_operation_xyz
  'x, y, z'

loop_
  _atom_site_type_symbol
  _atom_site_label
  _atom_site_symmetry_multiplicity
  _atom_site_fract_x
  _atom_site_fract_y
  _atom_site_fract_z
  _atom_site_occupancy
  K   K1        1.0  0.604455  0.252268  0.084298  1.0000
  K   K2        1.0  0.8353689999999999  0.313928  0.678942  1.0000
  K   K3        1.0  0.09353799999999997  0.827468  0.450888  1.0000
  K   K4        1.0  0.355746  0.48172400000000004  0.6111000000000001  1.0000
  K   K5        1.0  0.48775399999999997  0.726407  0.230948  1.0000
  Mo  Mo1       1.0  0.9981069999999999  0.999228  0.994022  1.0000
  C   C1        1.0  0.11521599999999997  0.8022669999999998  0.87051  1.0000
  C   C2        1.0  0.822432  0.7093299999999999  0.9657210000000002  1.0000
  C   C3        1.0  0.891263  0.04725700000000001  0.21188600000000002  1.0000
  C   C4        1.0  0.068372  0.316171  0.125214  1.0000
  C   C5        1.0  0.14003200000000002  0.139967  0.851022  1.0000
  C   C6        1.0  0.704776  0.9377330000000001  0.7708550000000001  1.0000
  C   C7        1.0  0.28617799999999993  0.10243499999999998  0.245427  1.0000
  N   N1        1.0  0.192534  0.704633  0.822042  1.0000
  N   N2        1.0  0.718468  0.55238  0.9454020000000001  1.0000
  N   N3        1.0  0.839178  0.08177200000000003  0.33314200000000005  1.0000
  N   N4        1.0  0.10968  0.485895  0.203959  1.0000
  N   N5        1.0  0.21441399999999997  0.22230399999999997  0.77548  1.0000
  N   N6        1.0  0.545879  0.910955  0.6595820000000001  1.0000
  N   N7        1.0  0.443918  0.16688000000000003  0.3829870000000001  1.0000
  O   O1        1.0  0.732592  0.592698  0.375372  1.0000
