data_image0
_chemical_formula_structural       Eu8B4I4N8
_chemical_formula_sum              "Eu8 B4 I4 N8"
_cell_length_a       4.13402
_cell_length_b       10.310576284379064
_cell_length_c       13.127219028307938
_cell_angle_alpha    92.14765583149142
_cell_angle_beta     90.0
_cell_angle_gamma    90.0

_space_group_name_H-M_alt    "P 1"
_space_group_IT_number       1

loop_
  _space_group_symop_operation_xyz
  'x, y, z'

loop_
  _atom_site_type_symbol
  _atom_site_label
  _atom_site_symmetry_multiplicity
  _atom_site_fract_x
  _atom_site_fract_y
  _atom_site_fract_z
  _atom_site_occupancy
  Eu  Eu1       1.0  0.75  0.921859  0.095766  1.0000
  Eu  Eu2       1.0  0.25  0.078141  0.904234  1.0000
  Eu  Eu3       1.0  0.75  0.3474870000000001  0.6309590000000002  1.0000
  Eu  Eu4       1.0  0.25  0.652513  0.369041  1.0000
  Eu  Eu5       1.0  0.75  0.8041370000000001  0.61652  1.0000
  Eu  Eu6       1.0  0.25  0.19586300000000004  0.38348  1.0000
  Eu  Eu7       1.0  0.75  0.397731  0.173632  1.0000
  Eu  Eu8       1.0  0.25  0.6022690000000002  0.8263679999999999  1.0000
  B   B1        1.0  0.75  0.839258  0.851589  1.0000
  B   B2        1.0  0.25  0.16074200000000002  0.148411  1.0000
  B   B3        1.0  0.75  0.419055  0.39554  1.0000
  B   B4        1.0  0.25  0.580945  0.60446  1.0000
  I   I1        1.0  0.75  0.9217930000000001  0.35820100000000005  1.0000
  I   I2        1.0  0.25  0.07820700000000001  0.641799  1.0000
  I   I3        1.0  0.75  0.34670200000000007  0.9041589999999999  1.0000
  I   I4        1.0  0.25  0.6532980000000002  0.09584100000000001  1.0000
  N   N1        1.0  0.75  0.524793  0.3379190000000001  1.0000
  N   N2        1.0  0.25  0.47520700000000005  0.6620809999999999  1.0000
  N   N3        1.0  0.75  0.307408  0.445713  1.0000
  N   N4        1.0  0.25  0.692592  0.554287  1.0000
  N   N5        1.0  0.75  0.9495340000000001  0.909583  1.0000
  N   N6        1.0  0.25  0.050466000000000004  0.090417  1.0000
  N   N7        1.0  0.75  0.729065  0.792491  1.0000
  N   N8        1.0  0.25  0.270935  0.207509  1.0000
