data_image0
_chemical_formula_structural       Na8S8O12
_chemical_formula_sum              "Na8 S8 O12"
_cell_length_a       8.242099
_cell_length_b       6.522382
_cell_length_c       8.620563421793266
_cell_angle_alpha    82.6633222128539
_cell_angle_beta     90.0
_cell_angle_gamma    90.0

_space_group_name_H-M_alt    "P 1"
_space_group_IT_number       1

loop_
  _space_group_symop_operation_xyz
  'x, y, z'

loop_
  _atom_site_type_symbol
  _atom_site_label
  _atom_site_symmetry_multiplicity
  _atom_site_fract_x
  _atom_site_fract_y
  _atom_site_fract_z
  _atom_site_occupancy
  Na  Na1       1.0  0.19797700000000001  0.8762159999999999  0.545958  1.0000
  Na  Na2       1.0  0.697977  0.623784  0.454042  1.0000
  Na  Na3       1.0  0.620992  0.29216  0.913867  1.0000
  Na  Na4       1.0  0.302023  0.37621599999999994  0.545958  1.0000
  Na  Na5       1.0  0.8790080000000001  0.7921599999999999  0.913867  1.0000
  Na  Na6       1.0  0.379008  0.70784  0.086133  1.0000
  Na  Na7       1.0  0.120992  0.20784  0.086133  1.0000
  Na  Na8       1.0  0.8020230000000002  0.12378399999999999  0.454042  1.0000
  S   S1        1.0  0.548358  0.7919969999999998  0.733649  1.0000
  S   S2        1.0  0.451642  0.20800300000000002  0.266351  1.0000
  S   S3        1.0  0.951642  0.291997  0.733649  1.0000
  S   S4        1.0  0.39686200000000005  0.017128999999999995  0.787081  1.0000
  S   S5        1.0  0.896862  0.482871  0.212919  1.0000
  S   S6        1.0  0.6031380000000001  0.9828709999999999  0.212919  1.0000
  S   S7        1.0  0.10313800000000001  0.5171289999999998  0.787081  1.0000
  S   S8        1.0  0.048358  0.708003  0.266351  1.0000
  O   O1        1.0  0.5878440000000001  0.659683  0.883638  1.0000
  O   O2        1.0  0.96377  0.828161  0.378077  1.0000
  O   O3        1.0  0.5362300000000001  0.328161  0.378077  1.0000
  O   O4        1.0  0.03623  0.171839  0.621923  1.0000
  O   O5        1.0  0.798423  0.379913  0.662063  1.0000
  O   O6        1.0  0.46377000000000007  0.671839  0.621923  1.0000
  O   O7        1.0  0.298423  0.12008700000000001  0.337937  1.0000
  O   O8        1.0  0.201577  0.620087  0.337937  1.0000
  O   O9        1.0  0.087844  0.8403169999999999  0.116362  1.0000
  O   O10       1.0  0.4121560000000001  0.340317  0.116362  1.0000
  O   O11       1.0  0.912156  0.159683  0.883638  1.0000
  O   O12       1.0  0.7015770000000001  0.879913  0.662063  1.0000
