data_image0
_chemical_formula_structural       Tb2Al14Au6
_chemical_formula_sum              "Tb2 Al14 Au6"
_cell_length_a       8.46458771995955
_cell_length_b       8.46458771995955
_cell_length_c       8.464587599580975
_cell_angle_alpha    57.23769171359149
_cell_angle_beta     57.23769171359149
_cell_angle_gamma    57.23768437809057

_space_group_name_H-M_alt    "P 1"
_space_group_IT_number       1

loop_
  _space_group_symop_operation_xyz
  'x, y, z'

loop_
  _atom_site_type_symbol
  _atom_site_label
  _atom_site_symmetry_multiplicity
  _atom_site_fract_x
  _atom_site_fract_y
  _atom_site_fract_z
  _atom_site_occupancy
  Tb  Tb1       1.0  0.0  0.0  0.0  1.0000
  Tb  Tb2       1.0  0.49999999999999994  0.5  0.5  1.0000
  Al  Al1       1.0  0.9303100000000001  0.14724200000000004  0.33260600000000007  1.0000
  Al  Al2       1.0  0.332606  0.9303100000000001  0.147242  1.0000
  Al  Al3       1.0  0.14724199999999993  0.33260599999999996  0.9303100000000001  1.0000
  Al  Al4       1.0  0.5696900000000001  0.16739400000000004  0.35275800000000007  1.0000
  Al  Al5       1.0  0.352758  0.5696900000000001  0.167394  1.0000
  Al  Al6       1.0  0.1673939999999999  0.35275800000000007  0.56969  1.0000
  Al  Al7       1.0  0.06968999999999971  0.852758  0.6673940000000002  1.0000
  Al  Al8       1.0  0.6673940000000002  0.06969000000000003  0.852758  1.0000
  Al  Al9       1.0  0.7500000000000002  0.7500000000000001  0.75  1.0000
  Al  Al10      1.0  0.24999999999999997  0.25  0.25  1.0000
  Al  Al11      1.0  0.832606  0.6472420000000001  0.4303100000000001  1.0000
  Al  Al12      1.0  0.6472419999999999  0.43031000000000014  0.832606  1.0000
  Al  Al13      1.0  0.4303099999999999  0.8326060000000002  0.6472420000000001  1.0000
  Al  Al14      1.0  0.8527579999999999  0.667394  0.06969  1.0000
  Au  Au1       1.0  0.2499999999999999  0.5733880000000001  0.926612  1.0000
  Au  Au2       1.0  0.9266119999999999  0.25  0.573388  1.0000
  Au  Au3       1.0  0.573388  0.9266120000000001  0.25  1.0000
  Au  Au4       1.0  0.75  0.42661200000000016  0.073388  1.0000
  Au  Au5       1.0  0.07338799999999997  0.75  0.42661200000000005  1.0000
  Au  Au6       1.0  0.42661200000000005  0.07338800000000005  0.75  1.0000
