data_image0
_chemical_formula_structural       Rb2U3I4O20
_chemical_formula_sum              "Rb2 U3 I4 O20"
_cell_length_a       7.101877
_cell_length_b       8.179431911451186
_cell_length_c       9.361556111762242
_cell_angle_alpha    90.16523310362699
_cell_angle_beta     104.68402230419944
_cell_angle_gamma    92.18755395371396

_space_group_name_H-M_alt    "P 1"
_space_group_IT_number       1

loop_
  _space_group_symop_operation_xyz
  'x, y, z'

loop_
  _atom_site_type_symbol
  _atom_site_label
  _atom_site_symmetry_multiplicity
  _atom_site_fract_x
  _atom_site_fract_y
  _atom_site_fract_z
  _atom_site_occupancy
  Rb  Rb1       1.0  0.24378400000000003  0.587892  0.8508360000000001  1.0000
  Rb  Rb2       1.0  0.756216  0.412108  0.149164  1.0000
  U   U1        1.0  0.548664  0.920803  0.191543  1.0000
  U   U2        1.0  0.451336  0.079197  0.808457  1.0000
  U   U3        1.0  0.0  0.0  0.0  1.0000
  I   I1        1.0  0.12174200000000003  0.79978  0.37470000000000003  1.0000
  I   I2        1.0  0.698603  0.649869  0.553861  1.0000
  I   I3        1.0  0.301397  0.350131  0.44613900000000006  1.0000
  I   I4        1.0  0.878258  0.20022  0.6253  1.0000
  O   O1        1.0  0.521783  0.708923  0.121467  1.0000
  O   O2        1.0  0.579806  0.128718  0.2701660000000001  1.0000
  O   O3        1.0  0.049217000000000004  0.283888  0.44729700000000006  1.0000
  O   O4        1.0  0.645764  0.480559  0.420498  1.0000
  O   O5        1.0  0.226919  0.917494  0.237025  1.0000
  O   O6        1.0  0.434867  0.187279  0.561627  1.0000
  O   O7        1.0  0.690313  0.010433  0.011983  1.0000
  O   O8        1.0  0.3096870000000001  0.9895670000000001  0.9880170000000001  1.0000
  O   O9        1.0  0.11294100000000003  0.114165  0.719228  1.0000
  O   O10       1.0  0.354236  0.519441  0.579502  1.0000
  O   O11       1.0  0.47821700000000006  0.291077  0.8785330000000001  1.0000
  O   O12       1.0  0.044488  0.212841  0.064221  1.0000
  O   O13       1.0  0.895658  0.398959  0.713042  1.0000
  O   O14       1.0  0.420194  0.871282  0.7298340000000001  1.0000
  O   O15       1.0  0.104342  0.601041  0.286958  1.0000
  O   O16       1.0  0.9507830000000002  0.716112  0.552703  1.0000
  O   O17       1.0  0.8870590000000002  0.885835  0.280772  1.0000
  O   O18       1.0  0.565133  0.812721  0.438373  1.0000
  O   O19       1.0  0.773081  0.082506  0.7629750000000001  1.0000
  O   O20       1.0  0.955512  0.787159  0.9357790000000001  1.0000
