data_image0
_chemical_formula_structural       La8C12
_chemical_formula_sum              "La8 C12"
_cell_length_a       7.643838343609222
_cell_length_b       7.643839795908075
_cell_length_c       7.64383948
_cell_angle_alpha    109.47121977079414
_cell_angle_beta     109.4712236195656
_cell_angle_gamma    109.47122939901178

_space_group_name_H-M_alt    "P 1"
_space_group_IT_number       1

loop_
  _space_group_symop_operation_xyz
  'x, y, z'

loop_
  _atom_site_type_symbol
  _atom_site_label
  _atom_site_symmetry_multiplicity
  _atom_site_fract_x
  _atom_site_fract_y
  _atom_site_fract_z
  _atom_site_occupancy
  La  La1       1.0  0.6043805100000001  0.60438051  0.60438051  1.0000
  La  La2       1.0  0.3956194900000001  0.5  0.0  1.0000
  La  La3       1.0  0.5  1.488250825711266e-25  0.39561949  1.0000
  La  La4       1.0  0.0  0.39561949  0.5  1.0000
  La  La5       1.0  0.5  1.488250825711266e-25  0.8956194900000001  1.0000
  La  La6       1.0  2.220446049250313e-16  0.8956194900000001  0.5  1.0000
  La  La7       1.0  0.89561949  0.5  0.9999999999999999  1.0000
  La  La8       1.0  0.10438051000000001  0.10438051  0.10438051  1.0000
  C   C1        1.0  0.75  0.80013095  0.05013095000000002  1.0000
  C   C2        1.0  0.75  0.9498690500000001  0.19986905000000002  1.0000
  C   C3        1.0  0.30013095  0.25  0.5501309500000001  1.0000
  C   C4        1.0  0.55013095  0.30013095  0.25  1.0000
  C   C5        1.0  0.19986904999999994  0.7499999999999999  0.94986905  1.0000
  C   C6        1.0  0.9498690500000001  0.19986905  0.7500000000000001  1.0000
  C   C7        1.0  0.25  0.69986905  0.44986905  1.0000
  C   C8        1.0  0.69986905  0.44986905  0.25  1.0000
  C   C9        1.0  0.25  0.55013095  0.30013094999999995  1.0000
  C   C10       1.0  0.44986905000000005  0.24999999999999997  0.69986905  1.0000
  C   C11       1.0  0.05013095000000004  0.7500000000000001  0.80013095  1.0000
  C   C12       1.0  0.80013095  0.05013095  0.75  1.0000
