data_image0
_chemical_formula_structural       Cs12Ga2Sb6
_chemical_formula_sum              "Cs12 Ga2 Sb6"
_cell_length_a       6.53404245
_cell_length_b       11.014197467810918
_cell_length_c       12.873999997147049
_cell_angle_alpha    78.865645058825
_cell_angle_beta     90.0
_cell_angle_gamma    90.0

_space_group_name_H-M_alt    "P 1"
_space_group_IT_number       1

loop_
  _space_group_symop_operation_xyz
  'x, y, z'

loop_
  _atom_site_type_symbol
  _atom_site_label
  _atom_site_symmetry_multiplicity
  _atom_site_fract_x
  _atom_site_fract_y
  _atom_site_fract_z
  _atom_site_occupancy
  Cs  Cs1       1.0  0.75  0.4558823699999999  0.07834752000000002  1.0000
  Cs  Cs2       1.0  0.25  0.54411763  0.9216524800000001  1.0000
  Cs  Cs3       1.0  0.75  0.7491140699999999  0.22169841000000004  1.0000
  Cs  Cs4       1.0  0.25  0.2508859299999999  0.77830159  1.0000
  Cs  Cs5       1.0  0.25  0.55540353  0.55032715  1.0000
  Cs  Cs6       1.0  0.75  0.44459647  0.44967285  1.0000
  Cs  Cs7       1.0  0.25  0.86507451  0.02198086  1.0000
  Cs  Cs8       1.0  0.75  0.13492549  0.97801914  1.0000
  Cs  Cs9       1.0  0.25  0.87625924  0.6754631500000001  1.0000
  Cs  Cs10      1.0  0.75  0.12374076000000002  0.32453685  1.0000
  Cs  Cs11      1.0  0.25  0.9066346599999999  0.36762992000000005  1.0000
  Cs  Cs12      1.0  0.75  0.09336533999999999  0.6323700800000001  1.0000
  Ga  Ga1       1.0  0.75  0.6772221799999999  0.72044105  1.0000
  Ga  Ga2       1.0  0.25  0.32277782  0.27955895000000003  1.0000
  Sb  Sb1       1.0  0.25  0.21449019000000002  0.48109785  1.0000
  Sb  Sb2       1.0  0.75  0.78550981  0.51890215  1.0000
  Sb  Sb3       1.0  0.25  0.56525616  0.23222201000000003  1.0000
  Sb  Sb4       1.0  0.75  0.43474383999999994  0.7677779900000001  1.0000
  Sb  Sb5       1.0  0.75  0.81089286  0.8745240600000002  1.0000
  Sb  Sb6       1.0  0.25  0.18910714  0.12547594  1.0000
