data_image0
_chemical_formula_structural       Y2In4Ni18
_chemical_formula_sum              "Y2 In4 Ni18"
_cell_length_a       8.222535
_cell_length_b       8.222535
_cell_length_c       4.828039
_cell_angle_alpha    90.0
_cell_angle_beta     90.0
_cell_angle_gamma    90.0

_space_group_name_H-M_alt    "P 1"
_space_group_IT_number       1

loop_
  _space_group_symop_operation_xyz
  'x, y, z'

loop_
  _atom_site_type_symbol
  _atom_site_label
  _atom_site_symmetry_multiplicity
  _atom_site_fract_x
  _atom_site_fract_y
  _atom_site_fract_z
  _atom_site_occupancy
  Y   Y1        1.0  0.5  0.5  0.0  1.0000
  Y   Y2        1.0  0.0  0.0  0.0  1.0000
  In  In1       1.0  0.6244080000000001  0.124408  0.0  1.0000
  In  In2       1.0  0.375592  0.875592  0.0  1.0000
  In  In3       1.0  0.124408  0.375592  0.0  1.0000
  In  In4       1.0  0.875592  0.6244080000000001  0.0  1.0000
  Ni  Ni1       1.0  0.5  0.0  0.49999999999999994  1.0000
  Ni  Ni2       1.0  0.0  0.5  0.49999999999999994  1.0000
  Ni  Ni3       1.0  0.705775  0.5633140000000001  0.49999999999999994  1.0000
  Ni  Ni4       1.0  0.294225  0.4366860000000001  0.49999999999999994  1.0000
  Ni  Ni5       1.0  0.205775  0.936686  0.49999999999999994  1.0000
  Ni  Ni6       1.0  0.794225  0.063314  0.49999999999999994  1.0000
  Ni  Ni7       1.0  0.4366860000000001  0.705775  0.49999999999999994  1.0000
  Ni  Ni8       1.0  0.5633140000000001  0.294225  0.49999999999999994  1.0000
  Ni  Ni9       1.0  0.063314  0.205775  0.49999999999999994  1.0000
  Ni  Ni10      1.0  0.936686  0.794225  0.49999999999999994  1.0000
  Ni  Ni11      1.0  0.823465  0.323465  0.7512909999999999  1.0000
  Ni  Ni12      1.0  0.176535  0.676535  0.7512909999999999  1.0000
  Ni  Ni13      1.0  0.323465  0.176535  0.7512909999999999  1.0000
  Ni  Ni14      1.0  0.676535  0.823465  0.7512909999999999  1.0000
  Ni  Ni15      1.0  0.176535  0.676535  0.248709  1.0000
  Ni  Ni16      1.0  0.823465  0.323465  0.248709  1.0000
  Ni  Ni17      1.0  0.676535  0.823465  0.248709  1.0000
  Ni  Ni18      1.0  0.323465  0.176535  0.248709  1.0000
