data_image0
_chemical_formula_structural       Th8Se12
_chemical_formula_sum              "Th8 Se12"
_cell_length_a       11.32628259
_cell_length_b       4.05383144
_cell_length_c       11.54014448
_cell_angle_alpha    90.0
_cell_angle_beta     90.0
_cell_angle_gamma    90.0

_space_group_name_H-M_alt    "P 1"
_space_group_IT_number       1

loop_
  _space_group_symop_operation_xyz
  'x, y, z'

loop_
  _atom_site_type_symbol
  _atom_site_label
  _atom_site_symmetry_multiplicity
  _atom_site_fract_x
  _atom_site_fract_y
  _atom_site_fract_z
  _atom_site_occupancy
  Th  Th1       1.0  0.47644768000000004  0.25  0.18444726  1.0000
  Th  Th2       1.0  0.97644768  0.25  0.31555274  1.0000
  Th  Th3       1.0  0.52355232  0.75  0.8155527399999999  1.0000
  Th  Th4       1.0  0.023552320000000005  0.75  0.68444726  1.0000
  Th  Th5       1.0  0.69730948  0.75  0.48349442  1.0000
  Th  Th6       1.0  0.19730948000000004  0.75  0.016505579999999995  1.0000
  Th  Th7       1.0  0.30269052  0.25  0.51650558  1.0000
  Th  Th8       1.0  0.80269052  0.25  0.98349442  1.0000
  Se  Se1       1.0  0.55444438  0.25  0.62233446  1.0000
  Se  Se2       1.0  0.05444438  0.25  0.8776655399999999  1.0000
  Se  Se3       1.0  0.44555562000000004  0.75  0.37766554  1.0000
  Se  Se4       1.0  0.9455556200000002  0.75  0.12233446  1.0000
  Se  Se5       1.0  0.62243518  0.75  0.05503816999999999  1.0000
  Se  Se6       1.0  0.12243518  0.75  0.44496182999999995  1.0000
  Se  Se7       1.0  0.37756482  0.25  0.9449618299999999  1.0000
  Se  Se8       1.0  0.87756482  0.25  0.55503817  1.0000
  Se  Se9       1.0  0.71517975  0.25  0.2966674  1.0000
  Se  Se10      1.0  0.21517975000000003  0.25  0.2033326  1.0000
  Se  Se11      1.0  0.28482025  0.75  0.7033326  1.0000
  Se  Se12      1.0  0.78482025  0.75  0.7966674  1.0000
