data_image0
_chemical_formula_structural       Tm6Fe6O18
_chemical_formula_sum              "Tm6 Fe6 O18"
_cell_length_a       6.009661294779001
_cell_length_b       6.009671987021604
_cell_length_c       11.616928750008453
_cell_angle_alpha    89.99988474607207
_cell_angle_beta     90.00013349526736
_cell_angle_gamma    119.99918964747502

_space_group_name_H-M_alt    "P 1"
_space_group_IT_number       1

loop_
  _space_group_symop_operation_xyz
  'x, y, z'

loop_
  _atom_site_type_symbol
  _atom_site_label
  _atom_site_symmetry_multiplicity
  _atom_site_fract_x
  _atom_site_fract_y
  _atom_site_fract_z
  _atom_site_occupancy
  Tm  Tm1       1.0  0.66666872  0.3333340000000001  0.7317838599999998  1.0000
  Tm  Tm2       1.0  0.66666622  0.33333181000000006  0.23178125  1.0000
  Tm  Tm3       1.0  6.4e-07  0.99999996  0.27666051  1.0000
  Tm  Tm4       1.0  0.3333319600000001  0.6666653600000001  0.23178117  1.0000
  Tm  Tm5       1.0  1.2000000000000044e-07  0.99999982  0.7766673700000001  1.0000
  Tm  Tm6       1.0  0.33333356  0.6666672  0.7317839999999999  1.0000
  Fe  Fe1       1.0  0.33399471000000003  0.9999990200000001  0.00053147  1.0000
  Fe  Fe2       1.0  0.99999899  0.33399506  0.00053167  1.0000
  Fe  Fe3       1.0  2.439999999908428e-06  0.6660062299999999  0.50052785  1.0000
  Fe  Fe4       1.0  0.66600683  1.4200000000599205e-06  0.50052774  1.0000
  Fe  Fe5       1.0  0.6659965699999999  0.6659966599999999  0.00053264  1.0000
  Fe  Fe6       1.0  0.33400424  0.33400331  0.50052908  1.0000
  O   O1        1.0  2.3399999999271306e-06  0.36292251999999997  0.83663819  1.0000
  O   O2        1.0  0.30382242  0.30382229  0.6667856  1.0000
  O   O3        1.0  0.66666708  0.33333251  0.02346534  1.0000
  O   O4        1.0  0.9999988899999999  0.6961768299999999  0.66678401  1.0000
  O   O5        1.0  0.66666867  0.33333371  0.52346489  1.0000
  O   O6        1.0  1.9999999999999995e-06  7.800000000000003e-07  0.4748883099999999  1.0000
  O   O7        1.0  0.36292089  1.4599999999807855e-06  0.83663879  1.0000
  O   O8        1.0  0.33333378  0.66666752  0.52346491  1.0000
  O   O9        1.0  0.30382778  1.2299999999912276e-06  0.16677934  1.0000
  O   O10       1.0  0.6370760799999999  0.99999752  0.33663291  1.0000
  O   O11       1.0  0.6370815  0.63708079  0.83663855  1.0000
  O   O12       1.0  0.3629207  0.36292012000000007  0.33663301  1.0000
  O   O13       1.0  0.99999817  0.63707595  0.33663357999999993  1.0000
  O   O14       1.0  1.7599999999417988e-06  0.30382921999999996  0.16678049  1.0000
  O   O15       1.0  0.6961762300000001  0.9999987900000001  0.66678443  1.0000
  O   O16       1.0  0.69617157  0.69617113  0.16678106  1.0000
  O   O17       1.0  0.99999172  2.0599999999999998e-06  0.9749026100000001  1.0000
  O   O18       1.0  0.3333333999999999  0.6666677099999999  0.023465369999999996  1.0000
