data_image0
_chemical_formula_structural       K4I4Br8O4
_chemical_formula_sum              "K4 I4 Br8 O4"
_cell_length_a       11.861679
_cell_length_b       12.019574
_cell_length_c       5.351083
_cell_angle_alpha    90.0
_cell_angle_beta     90.0
_cell_angle_gamma    90.0

_space_group_name_H-M_alt    "P 1"
_space_group_IT_number       1

loop_
  _space_group_symop_operation_xyz
  'x, y, z'

loop_
  _atom_site_type_symbol
  _atom_site_label
  _atom_site_symmetry_multiplicity
  _atom_site_fract_x
  _atom_site_fract_y
  _atom_site_fract_z
  _atom_site_occupancy
  K   K1        1.0  0.8222760000000001  0.216836  0.49999999999999994  1.0000
  K   K2        1.0  0.177724  0.783164  0.49999999999999994  1.0000
  K   K3        1.0  0.32227600000000006  0.283164  0.0  1.0000
  K   K4        1.0  0.6777240000000001  0.716836  0.0  1.0000
  I   I1        1.0  0.5  0.5  0.49999999999999994  1.0000
  I   I2        1.0  0.0  0.0  0.0  1.0000
  I   I3        1.0  0.5  0.0  0.49999999999999994  1.0000
  I   I4        1.0  0.0  0.5  0.0  1.0000
  Br  Br1       1.0  0.520391  0.267993  0.49999999999999994  1.0000
  Br  Br2       1.0  0.47960900000000006  0.7320069999999999  0.49999999999999994  1.0000
  Br  Br3       1.0  0.020391  0.232007  0.0  1.0000
  Br  Br4       1.0  0.979609  0.767993  0.0  1.0000
  Br  Br5       1.0  0.7227200000000001  0.93961  0.49999999999999994  1.0000
  Br  Br6       1.0  0.27728  0.06039  0.49999999999999994  1.0000
  Br  Br7       1.0  0.22272000000000003  0.56039  0.0  1.0000
  Br  Br8       1.0  0.7772800000000001  0.43961  0.0  1.0000
  O   O1        1.0  0.804797  0.226246  0.0  1.0000
  O   O2        1.0  0.195203  0.773754  0.0  1.0000
  O   O3        1.0  0.304797  0.273754  0.49999999999999994  1.0000
  O   O4        1.0  0.695203  0.726246  0.49999999999999994  1.0000
