data_image0
_chemical_formula_structural       Mo4N6Cl18
_chemical_formula_sum              "Mo4 N6 Cl18"
_cell_length_a       7.25711839294923
_cell_length_b       7.25711839294923
_cell_length_c       17.128493
_cell_angle_alpha    90.0
_cell_angle_beta     90.0
_cell_angle_gamma    120.00000358231878

_space_group_name_H-M_alt    "P 1"
_space_group_IT_number       1

loop_
  _space_group_symop_operation_xyz
  'x, y, z'

loop_
  _atom_site_type_symbol
  _atom_site_label
  _atom_site_symmetry_multiplicity
  _atom_site_fract_x
  _atom_site_fract_y
  _atom_site_fract_z
  _atom_site_occupancy
  Mo  Mo1       1.0  0.333333  0.666667  0.668931  1.0000
  Mo  Mo2       1.0  0.6666670000000001  0.33333300000000005  0.331069  1.0000
  Mo  Mo3       1.0  0.6666670000000001  0.33333300000000005  0.168931  1.0000
  Mo  Mo4       1.0  0.333333  0.666667  0.831069  1.0000
  N   N1        1.0  0.0  0.0  0.25  1.0000
  N   N2        1.0  0.0  0.0  0.75  1.0000
  N   N3        1.0  0.333333  0.666667  0.429414  1.0000
  N   N4        1.0  0.6666670000000001  0.33333300000000005  0.570586  1.0000
  N   N5        1.0  0.6666670000000001  0.33333300000000005  0.929414  1.0000
  N   N6        1.0  0.333333  0.666667  0.070586  1.0000
  Cl  Cl1       1.0  0.503628  0.4963719999999999  0.25  1.0000
  Cl  Cl2       1.0  0.503628  0.007256000000000012  0.25  1.0000
  Cl  Cl3       1.0  0.992744  0.496372  0.25  1.0000
  Cl  Cl4       1.0  0.496372  0.503628  0.75  1.0000
  Cl  Cl5       1.0  0.496372  0.992744  0.75  1.0000
  Cl  Cl6       1.0  0.0072560000000000055  0.503628  0.75  1.0000
  Cl  Cl7       1.0  0.819855  0.18014500000000008  0.403395  1.0000
  Cl  Cl8       1.0  0.8198550000000001  0.6397090000000001  0.403395  1.0000
  Cl  Cl9       1.0  0.360291  0.180145  0.403395  1.0000
  Cl  Cl10      1.0  0.180145  0.819855  0.596605  1.0000
  Cl  Cl11      1.0  0.180145  0.360291  0.596605  1.0000
  Cl  Cl12      1.0  0.6397090000000001  0.8198550000000001  0.596605  1.0000
  Cl  Cl13      1.0  0.180145  0.819855  0.903395  1.0000
  Cl  Cl14      1.0  0.180145  0.360291  0.903395  1.0000
  Cl  Cl15      1.0  0.6397090000000001  0.8198550000000001  0.903395  1.0000
  Cl  Cl16      1.0  0.819855  0.18014500000000008  0.096605  1.0000
  Cl  Cl17      1.0  0.8198550000000001  0.6397090000000001  0.096605  1.0000
  Cl  Cl18      1.0  0.360291  0.180145  0.096605  1.0000
