data_image0
_chemical_formula_structural       H12C6O6
_chemical_formula_sum              "H12 C6 O6"
_cell_length_a       6.167616239129831
_cell_length_b       6.167616239129831
_cell_length_c       6.167616357860466
_cell_angle_alpha    100.99131583582209
_cell_angle_beta     100.99131583582209
_cell_angle_gamma    100.99131608035934

_space_group_name_H-M_alt    "P 1"
_space_group_IT_number       1

loop_
  _space_group_symop_operation_xyz
  'x, y, z'

loop_
  _atom_site_type_symbol
  _atom_site_label
  _atom_site_symmetry_multiplicity
  _atom_site_fract_x
  _atom_site_fract_y
  _atom_site_fract_z
  _atom_site_occupancy
  H   H1        1.0  0.2419840000000001  0.734191  0.449496  1.0000
  H   H2        1.0  0.734191  0.44949599999999995  0.24198400000000003  1.0000
  H   H3        1.0  0.449496  0.241984  0.734191  1.0000
  H   H4        1.0  0.9494960000000001  0.2341909999999999  0.741984  1.0000
  H   H5        1.0  0.23419100000000007  0.7419840000000001  0.949496  1.0000
  H   H6        1.0  0.7419839999999999  0.9494959999999999  0.234191  1.0000
  H   H7        1.0  0.522515  0.806179  0.642502  1.0000
  H   H8        1.0  0.8061790000000001  0.6425020000000001  0.522515  1.0000
  H   H9        1.0  0.02251500000000002  0.14250200000000002  0.306179  1.0000
  H   H10       1.0  0.142502  0.306179  0.022515  1.0000
  H   H11       1.0  0.306179  0.02251500000000001  0.142502  1.0000
  H   H12       1.0  0.642502  0.5225149999999998  0.806179  1.0000
  C   C1        1.0  0.892219  0.010562000000000026  0.17291  1.0000
  C   C2        1.0  0.67291  0.510562  0.392219  1.0000
  C   C3        1.0  0.5105620000000001  0.39221900000000004  0.67291  1.0000
  C   C4        1.0  0.01056199999999997  0.17290999999999998  0.892219  1.0000
  C   C5        1.0  0.17290999999999998  0.892219  0.010562  1.0000
  C   C6        1.0  0.3922189999999999  0.6729099999999999  0.510562  1.0000
  O   O1        1.0  0.320145  0.484311  0.603987  1.0000
  O   O2        1.0  0.484311  0.603987  0.320145  1.0000
  O   O3        1.0  0.603987  0.320145  0.484311  1.0000
  O   O4        1.0  0.10398700000000005  0.984311  0.820145  1.0000
  O   O5        1.0  0.9843109999999999  0.8201449999999999  0.103987  1.0000
  O   O6        1.0  0.820145  0.10398699999999998  0.984311  1.0000
