data_image0
_chemical_formula_structural       Ca6Sc2Co2O12
_chemical_formula_sum              "Ca6 Sc2 Co2 O12"
_cell_length_a       6.396399825369971
_cell_length_b       6.396399825369971
_cell_length_c       6.39639912464857
_cell_angle_alpha    92.46592048509169
_cell_angle_beta     92.46592048509169
_cell_angle_gamma    92.46591895359639

_space_group_name_H-M_alt    "P 1"
_space_group_IT_number       1

loop_
  _space_group_symop_operation_xyz
  'x, y, z'

loop_
  _atom_site_type_symbol
  _atom_site_label
  _atom_site_symmetry_multiplicity
  _atom_site_fract_x
  _atom_site_fract_y
  _atom_site_fract_z
  _atom_site_occupancy
  Ca  Ca1       1.0  0.38162899999999994  0.75  0.11837100000000002  1.0000
  Ca  Ca2       1.0  0.75  0.11837099999999999  0.381629  1.0000
  Ca  Ca3       1.0  0.11837099999999992  0.38162899999999994  0.75  1.0000
  Ca  Ca4       1.0  0.8816289999999999  0.6183709999999999  0.25  1.0000
  Ca  Ca5       1.0  0.25  0.881629  0.618371  1.0000
  Ca  Ca6       1.0  0.618371  0.25  0.881629  1.0000
  Sc  Sc1       1.0  0.25  0.25  0.25  1.0000
  Sc  Sc2       1.0  0.7499999999999999  0.7499999999999999  0.75  1.0000
  Co  Co1       1.0  0.5  0.5  0.5  1.0000
  Co  Co2       1.0  0.0  0.0  0.0  1.0000
  O   O1        1.0  0.08838300000000007  0.957612  0.290445  1.0000
  O   O2        1.0  0.9116169999999999  0.04238800000000006  0.709555  1.0000
  O   O3        1.0  0.7095550000000002  0.9116170000000001  0.042388  1.0000
  O   O4        1.0  0.9576119999999999  0.290445  0.08838300000000002  1.0000
  O   O5        1.0  0.2095550000000001  0.5423880000000001  0.411617  1.0000
  O   O6        1.0  0.042387999999999884  0.7095549999999999  0.9116170000000001  1.0000
  O   O7        1.0  0.45761199999999996  0.588383  0.7904450000000001  1.0000
  O   O8        1.0  0.411617  0.20955499999999996  0.542388  1.0000
  O   O9        1.0  0.542388  0.41161699999999996  0.20955500000000002  1.0000
  O   O10       1.0  0.7904449999999998  0.457612  0.588383  1.0000
  O   O11       1.0  0.29044500000000006  0.08838300000000003  0.9576120000000001  1.0000
  O   O12       1.0  0.588383  0.790445  0.457612  1.0000
