data_image0
_chemical_formula_structural       Zr2H12O4F12
_chemical_formula_sum              "Zr2 H12 O4 F12"
_cell_length_a       7.377399220682651
_cell_length_b       7.377399220682651
_cell_length_c       6.819415463092566
_cell_angle_alpha    78.78293606413662
_cell_angle_beta     78.78293606413662
_cell_angle_gamma    120.02510142606961

_space_group_name_H-M_alt    "P 1"
_space_group_IT_number       1

loop_
  _space_group_symop_operation_xyz
  'x, y, z'

loop_
  _atom_site_type_symbol
  _atom_site_label
  _atom_site_symmetry_multiplicity
  _atom_site_fract_x
  _atom_site_fract_y
  _atom_site_fract_z
  _atom_site_occupancy
  Zr  Zr1       1.0  0.04723400000000003  0.952766  0.75  1.0000
  Zr  Zr2       1.0  0.952765  0.047233999999999964  0.25  1.0000
  H   H1        1.0  0.38388299999999986  0.8501299999999999  0.8738360000000001  1.0000
  H   H2        1.0  0.85013  0.383883  0.37383600000000006  1.0000
  H   H3        1.0  0.6161169999999999  0.14986999999999995  0.126164  1.0000
  H   H4        1.0  0.1498699999999999  0.6161169999999999  0.626164  1.0000
  H   H5        1.0  0.596209  0.241024  0.56364  1.0000
  H   H6        1.0  0.24102399999999988  0.5962089999999999  0.06364  1.0000
  H   H7        1.0  0.40379099999999984  0.7589759999999998  0.4363600000000001  1.0000
  H   H8        1.0  0.758976  0.403791  0.9363600000000001  1.0000
  H   H9        1.0  0.522723  0.729536  0.943628  1.0000
  H   H10       1.0  0.729536  0.522723  0.443628  1.0000
  H   H11       1.0  0.477277  0.270464  0.056372000000000005  1.0000
  H   H12       1.0  0.2704640000000001  0.4772770000000001  0.556372  1.0000
  O   O1        1.0  0.61159  0.25581099999999996  0.00945  1.0000
  O   O2        1.0  0.255811  0.61159  0.50945  1.0000
  O   O3        1.0  0.38841  0.744189  0.9905500000000002  1.0000
  O   O4        1.0  0.7441889999999999  0.38840999999999987  0.49055  1.0000
  F   F1        1.0  0.996215  0.628716  0.79957  1.0000
  F   F2        1.0  0.6287159999999999  0.9962149999999999  0.29957000000000006  1.0000
  F   F3        1.0  0.003784999999999967  0.37128399999999995  0.20043  1.0000
  F   F4        1.0  0.37128399999999995  0.003784999999999926  0.70043  1.0000
  F   F5        1.0  0.9335280000000001  0.11358799999999994  0.938389  1.0000
  F   F6        1.0  0.11358800000000006  0.9335280000000001  0.43838900000000003  1.0000
  F   F7        1.0  0.06647199999999993  0.8864119999999999  0.061611  1.0000
  F   F8        1.0  0.886412  0.06647199999999999  0.561611  1.0000
  F   F9        1.0  0.708731  0.716083  0.895741  1.0000
  F   F10       1.0  0.7160830000000001  0.708731  0.39574100000000006  1.0000
  F   F11       1.0  0.291269  0.283917  0.10425900000000002  1.0000
  F   F12       1.0  0.283917  0.291269  0.604259  1.0000
