data_image0
_chemical_formula_structural       Cd20Cu8
_chemical_formula_sum              "Cd20 Cu8"
_cell_length_a       8.17154785
_cell_length_b       8.171547877797707
_cell_length_c       8.85299169
_cell_angle_alpha    90.0
_cell_angle_beta     90.0
_cell_angle_gamma    119.99999579882885

_space_group_name_H-M_alt    "P 1"
_space_group_IT_number       1

loop_
  _space_group_symop_operation_xyz
  'x, y, z'

loop_
  _atom_site_type_symbol
  _atom_site_label
  _atom_site_symmetry_multiplicity
  _atom_site_fract_x
  _atom_site_fract_y
  _atom_site_fract_z
  _atom_site_occupancy
  Cd  Cd1       1.0  0.2040515  0.40810399  0.9585706199999999  1.0000
  Cd  Cd2       1.0  0.7959485000000001  0.20405150000000002  0.45857062  1.0000
  Cd  Cd3       1.0  0.40810399  0.20405150000000002  0.45857062  1.0000
  Cd  Cd4       1.0  0.59189601  0.7959485  0.9585706199999999  1.0000
  Cd  Cd5       1.0  0.2040515  0.7959485  0.9585706199999999  1.0000
  Cd  Cd6       1.0  0.7959485000000001  0.5918960100000001  0.04142938  1.0000
  Cd  Cd7       1.0  0.7959485000000001  0.20405150000000002  0.04142938  1.0000
  Cd  Cd8       1.0  0.7959485000000001  0.5918960100000001  0.45857062  1.0000
  Cd  Cd9       1.0  0.40810399  0.20405150000000002  0.04142938  1.0000
  Cd  Cd10      1.0  0.59189601  0.7959485  0.54142938  1.0000
  Cd  Cd11      1.0  0.2040515  0.40810399  0.54142938  1.0000
  Cd  Cd12      1.0  0.2040515  0.7959485  0.54142938  1.0000
  Cd  Cd13      1.0  0.5374553200000001  0.07490965  0.75  1.0000
  Cd  Cd14      1.0  0.46254468  0.53745532  0.25  1.0000
  Cd  Cd15      1.0  0.07490965  0.53745532  0.25  1.0000
  Cd  Cd16      1.0  0.92509035  0.46254468  0.75  1.0000
  Cd  Cd17      1.0  0.5374553200000001  0.46254468  0.75  1.0000
  Cd  Cd18      1.0  0.46254468000000004  0.9250903500000001  0.25  1.0000
  Cd  Cd19      1.0  0.0  0.0  0.5  1.0000
  Cd  Cd20      1.0  0.0  0.0  0.0  1.0000
  Cu  Cu1       1.0  0.8898510100000001  0.77970102  0.75  1.0000
  Cu  Cu2       1.0  0.11014898999999999  0.88985101  0.25  1.0000
  Cu  Cu3       1.0  0.77970102  0.88985101  0.25  1.0000
  Cu  Cu4       1.0  0.22029898000000003  0.11014899000000002  0.75  1.0000
  Cu  Cu5       1.0  0.8898510100000001  0.11014899000000002  0.75  1.0000
  Cu  Cu6       1.0  0.11014899000000002  0.22029898000000003  0.25  1.0000
  Cu  Cu7       1.0  0.666667  0.33333300000000005  0.25  1.0000
  Cu  Cu8       1.0  0.333333  0.666667  0.75  1.0000
