data_image0
_chemical_formula_structural       Cs10Ga6Se14
_chemical_formula_sum              "Cs10 Ga6 Se14"
_cell_length_a       11.247425586134163
_cell_length_b       11.247425586134163
_cell_length_c       9.761092356959928
_cell_angle_alpha    75.36004169692998
_cell_angle_beta     75.36004169692998
_cell_angle_gamma    70.74504295505562

_space_group_name_H-M_alt    "P 1"
_space_group_IT_number       1

loop_
  _space_group_symop_operation_xyz
  'x, y, z'

loop_
  _atom_site_type_symbol
  _atom_site_label
  _atom_site_symmetry_multiplicity
  _atom_site_fract_x
  _atom_site_fract_y
  _atom_site_fract_z
  _atom_site_occupancy
  Cs  Cs1       1.0  0.025079900000000075  0.43891596000000005  0.7188063299999999  1.0000
  Cs  Cs2       1.0  0.43891595999999994  0.025079899999999985  0.7188063299999999  1.0000
  Cs  Cs3       1.0  0.9749201  0.5610840399999999  0.28119367  1.0000
  Cs  Cs4       1.0  0.5610840400000001  0.9749201  0.28119367  1.0000
  Cs  Cs5       1.0  0.28660509999999995  0.7133949  0.0  1.0000
  Cs  Cs6       1.0  0.7133949  0.28660509999999995  1.8692417099439274e-19  1.0000
  Cs  Cs7       1.0  0.8495001600000001  0.15049983999999997  0.49999999999999994  1.0000
  Cs  Cs8       1.0  0.15049984000000005  0.84950016  0.49999999999999994  1.0000
  Cs  Cs9       1.0  0.42510077  0.42510077  0.6929012199999999  1.0000
  Cs  Cs10      1.0  0.5748992299999999  0.5748992300000001  0.30709877999999996  1.0000
  Ga  Ga1       1.0  0.21321780999999998  0.21321781000000004  0.18318076999999997  1.0000
  Ga  Ga2       1.0  0.7867821899999999  0.7867821899999999  0.81681923  1.0000
  Ga  Ga3       1.0  0.07169176999999999  0.07169177000000002  0.05763274  1.0000
  Ga  Ga4       1.0  0.9283082299999997  0.9283082300000001  0.94236726  1.0000
  Ga  Ga5       1.0  0.34727906999999997  0.3472790700000001  0.33533816  1.0000
  Ga  Ga6       1.0  0.65272093  0.65272093  0.66466184  1.0000
  Se  Se1       1.0  0.002434669999999991  0.28508348  0.11418869  1.0000
  Se  Se2       1.0  0.28508348  0.0024346699999999973  0.11418869  1.0000
  Se  Se3       1.0  0.9975653299999997  0.7149165200000002  0.88581131  1.0000
  Se  Se4       1.0  0.7149165199999999  0.99756533  0.88581131  1.0000
  Se  Se5       1.0  0.20415181999999998  0.20415182000000004  0.43333662999999994  1.0000
  Se  Se6       1.0  0.7958481800000001  0.7958481800000001  0.56666337  1.0000
  Se  Se7       1.0  0.06457078  0.06457078000000002  0.8132538699999999  1.0000
  Se  Se8       1.0  0.93542922  0.93542922  0.18674613  1.0000
  Se  Se9       1.0  0.3502635499999999  0.35026355000000003  0.07647842  1.0000
  Se  Se10      1.0  0.64973645  0.64973645  0.9235215799999998  1.0000
  Se  Se11      1.0  0.25037980999999987  0.5538488000000001  0.39439202999999995  1.0000
  Se  Se12      1.0  0.5538488  0.25037981000000004  0.39439202999999995  1.0000
  Se  Se13      1.0  0.74962019  0.44615119999999997  0.60560797  1.0000
  Se  Se14      1.0  0.4461512000000001  0.7496201900000001  0.60560797  1.0000
