data_image0
_chemical_formula_structural       Hf6Cr4Ga12
_chemical_formula_sum              "Hf6 Cr4 Ga12"
_cell_length_a       5.317308
_cell_length_b       7.725552
_cell_length_c       8.739714
_cell_angle_alpha    90.0
_cell_angle_beta     90.0
_cell_angle_gamma    90.0

_space_group_name_H-M_alt    "P 1"
_space_group_IT_number       1

loop_
  _space_group_symop_operation_xyz
  'x, y, z'

loop_
  _atom_site_type_symbol
  _atom_site_label
  _atom_site_symmetry_multiplicity
  _atom_site_fract_x
  _atom_site_fract_y
  _atom_site_fract_z
  _atom_site_occupancy
  Hf  Hf1       1.0  0.5  0.155506  0.779879  1.0000
  Hf  Hf2       1.0  0.5  0.155506  0.220121  1.0000
  Hf  Hf3       1.0  0.0  0.844494  0.720121  1.0000
  Hf  Hf4       1.0  0.0  0.844494  0.279879  1.0000
  Hf  Hf5       1.0  0.5  0.714407  0.5  1.0000
  Hf  Hf6       1.0  0.0  0.285593  0.0  1.0000
  Cr  Cr1       1.0  0.25  0.5  0.25  1.0000
  Cr  Cr2       1.0  0.25  0.5  0.75  1.0000
  Cr  Cr3       1.0  0.75  0.5  0.25  1.0000
  Cr  Cr4       1.0  0.75  0.5  0.75  1.0000
  Ga  Ga1       1.0  0.5  0.7668200000000001  0.187538  1.0000
  Ga  Ga2       1.0  0.5  0.7668200000000001  0.812462  1.0000
  Ga  Ga3       1.0  0.0  0.23318  0.3124620000000001  1.0000
  Ga  Ga4       1.0  0.0  0.23318  0.6875380000000001  1.0000
  Ga  Ga5       1.0  0.5  0.36580500000000005  0.5  1.0000
  Ga  Ga6       1.0  0.0  0.634195  0.0  1.0000
  Ga  Ga7       1.0  0.0  0.562557  0.5  1.0000
  Ga  Ga8       1.0  0.5  0.437443  0.0  1.0000
  Ga  Ga9       1.0  0.260435  0.039044  0.5  1.0000
  Ga  Ga10      1.0  0.739565  0.039044  0.5  1.0000
  Ga  Ga11      1.0  0.239565  0.960956  0.0  1.0000
  Ga  Ga12      1.0  0.760435  0.960956  0.0  1.0000
