data_image0
_chemical_formula_structural       La4Co4O12
_chemical_formula_sum              "La4 Co4 O12"
_cell_length_a       5.361153261786199
_cell_length_b       7.620694113728844
_cell_length_c       5.441142229992054
_cell_angle_alpha    90.03294689325979
_cell_angle_beta     89.78964198576459
_cell_angle_gamma    91.17317137934526

_space_group_name_H-M_alt    "P 1"
_space_group_IT_number       1

loop_
  _space_group_symop_operation_xyz
  'x, y, z'

loop_
  _atom_site_type_symbol
  _atom_site_label
  _atom_site_symmetry_multiplicity
  _atom_site_fract_x
  _atom_site_fract_y
  _atom_site_fract_z
  _atom_site_occupancy
  La  La1       1.0  0.24948189000000007  0.50008245  0.7497342900000001  1.0000
  La  La2       1.0  0.7507054800000001  0.9997138500000001  0.24974338  1.0000
  La  La3       1.0  0.74926907  0.5003048500000001  0.2502560900000001  1.0000
  La  La4       1.0  0.25051783000000005  0.9999122800000001  0.7502733  1.0000
  Co  Co1       1.0  0.2500005799999998  0.7499987099999998  0.24998344999999997  1.0000
  Co  Co2       1.0  0.25000039  0.25000255  0.24999041999999996  1.0000
  Co  Co3       1.0  0.7500090599999999  0.25000033  0.7500059699999999  1.0000
  Co  Co4       1.0  0.75000205  0.74999776  0.7500062000000001  1.0000
  O   O1        1.0  0.74788768  0.50004586  0.80596392  1.0000
  O   O2        1.0  0.24743342  0.99996738  0.30594663  1.0000
  O   O3        1.0  0.25257306  0.5000295  0.19405688  1.0000
  O   O4        1.0  0.75211279  0.9999527100000001  0.69403061  1.0000
  O   O5        1.0  0.026578399999999967  0.22382498999999997  0.97342265  1.0000
  O   O6        1.0  0.52400098  0.72343835  0.47603154000000003  1.0000
  O   O7        1.0  0.97599525  0.7765578799999999  0.023975840000000068  1.0000
  O   O8        1.0  0.47342568000000007  0.2761705700000001  0.52657432  1.0000
  O   O9        1.0  0.47533472000000004  0.77944245  0.9753681000000002  1.0000
  O   O10       1.0  0.97285144  0.2791395099999999  0.47285524  1.0000
  O   O11       1.0  0.52714478  0.22086722  0.027143200000000034  1.0000
  O   O12       1.0  0.024674449999999983  0.72055081  0.52463796  1.0000
