data_image0
_chemical_formula_structural       Sr10Sn4P12
_chemical_formula_sum              "Sr10 Sn4 P12"
_cell_length_a       4.168021
_cell_length_b       12.307177
_cell_length_c       13.916672
_cell_angle_alpha    90.0
_cell_angle_beta     90.0
_cell_angle_gamma    90.0

_space_group_name_H-M_alt    "P 1"
_space_group_IT_number       1

loop_
  _space_group_symop_operation_xyz
  'x, y, z'

loop_
  _atom_site_type_symbol
  _atom_site_label
  _atom_site_symmetry_multiplicity
  _atom_site_fract_x
  _atom_site_fract_y
  _atom_site_fract_z
  _atom_site_occupancy
  Sr  Sr1       1.0  0.0  0.6289760000000001  0.06954800000000001  1.0000
  Sr  Sr2       1.0  0.0  0.6188600000000001  0.742175  1.0000
  Sr  Sr3       1.0  0.0  0.128976  0.43045200000000006  1.0000
  Sr  Sr4       1.0  0.0  0.8710240000000001  0.569548  1.0000
  Sr  Sr5       1.0  0.0  0.5  0.5  1.0000
  Sr  Sr6       1.0  0.0  0.0  0.0  1.0000
  Sr  Sr7       1.0  0.0  0.8811400000000001  0.242175  1.0000
  Sr  Sr8       1.0  0.0  0.11886000000000001  0.757825  1.0000
  Sr  Sr9       1.0  0.0  0.38114000000000003  0.257825  1.0000
  Sr  Sr10      1.0  0.0  0.371024  0.930452  1.0000
  Sn  Sn1       1.0  0.5  0.285316  0.60347  1.0000
  Sn  Sn2       1.0  0.5  0.21468400000000004  0.10347000000000002  1.0000
  Sn  Sn3       1.0  0.5  0.7853160000000001  0.89653  1.0000
  Sn  Sn4       1.0  0.5  0.714684  0.39653000000000005  1.0000
  P   P1        1.0  0.0  0.6345000000000001  0.306423  1.0000
  P   P2        1.0  0.5  0.07981500000000001  0.6018500000000001  1.0000
  P   P3        1.0  0.5  0.420185  0.10185000000000001  1.0000
  P   P4        1.0  0.5  0.579815  0.8981500000000001  1.0000
  P   P5        1.0  0.5  0.66987  0.5758590000000001  1.0000
  P   P6        1.0  0.5  0.33013000000000003  0.42414100000000005  1.0000
  P   P7        1.0  0.5  0.16987  0.9241410000000001  1.0000
  P   P8        1.0  0.5  0.8301300000000001  0.07585900000000001  1.0000
  P   P9        1.0  0.5  0.9201850000000001  0.39815000000000006  1.0000
  P   P10       1.0  0.0  0.8655000000000002  0.8064230000000001  1.0000
  P   P11       1.0  0.0  0.3655  0.6935770000000001  1.0000
  P   P12       1.0  0.0  0.1345  0.193577  1.0000
