data_image0
_chemical_formula_structural       Sm2Fe12P7
_chemical_formula_sum              "Sm2 Fe12 P7"
_cell_length_a       3.659076
_cell_length_b       9.030849313742534
_cell_length_c       9.030550616822044
_cell_angle_alpha    120.08374829169433
_cell_angle_beta     90.0
_cell_angle_gamma    90.0

_space_group_name_H-M_alt    "P 1"
_space_group_IT_number       1

loop_
  _space_group_symop_operation_xyz
  'x, y, z'

loop_
  _atom_site_type_symbol
  _atom_site_label
  _atom_site_symmetry_multiplicity
  _atom_site_fract_x
  _atom_site_fract_y
  _atom_site_fract_z
  _atom_site_occupancy
  Sm  Sm1       1.0  0.0  0.667351  0.33361099999999994  1.0000
  Sm  Sm2       1.0  0.5  0.33301400000000003  0.666506  1.0000
  Fe  Fe1       1.0  0.0  0.3726070000000001  0.945553  1.0000
  Fe  Fe2       1.0  0.0  0.05453899999999997  0.426754  1.0000
  Fe  Fe3       1.0  0.0  0.572643  0.62698  1.0000
  Fe  Fe4       1.0  0.0  0.8799650000000001  0.726667  1.0000
  Fe  Fe5       1.0  0.0  0.273994  0.153879  1.0000
  Fe  Fe6       1.0  0.0  0.8459830000000002  0.11963700000000001  1.0000
  Fe  Fe7       1.0  0.5  0.952247  0.569476  1.0000
  Fe  Fe8       1.0  0.5  0.43057  0.383038  1.0000
  Fe  Fe9       1.0  0.5  0.617422  0.04779000000000001  1.0000
  Fe  Fe10      1.0  0.5  0.12017300000000018  0.9024220000000001  1.0000
  Fe  Fe11      1.0  0.5  0.09746800000000003  0.217494  1.0000
  Fe  Fe12      1.0  0.5  0.782398  0.879987  1.0000
  P   P1        1.0  0.0  0.11059199999999997  0.703861  1.0000
  P   P2        1.0  0.0  0.294766  0.4065  1.0000
  P   P3        1.0  0.0  0.592738  0.888554  1.0000
  P   P4        1.0  0.5  0.711574  0.60279  1.0000
  P   P5        1.0  0.5  0.397805  0.108325  1.0000
  P   P6        1.0  0.5  0.8920930000000001  0.290047  1.0000
  P   P7        1.0  0.0  5.7e-05  0.00013  1.0000
