data_image0
_chemical_formula_structural       La4Be4Ge2O14
_chemical_formula_sum              "La4 Be4 Ge2 O14"
_cell_length_a       7.67910542
_cell_length_b       7.67910542
_cell_length_c       4.95593186
_cell_angle_alpha    90.0
_cell_angle_beta     90.0
_cell_angle_gamma    90.0

_space_group_name_H-M_alt    "P 1"
_space_group_IT_number       1

loop_
  _space_group_symop_operation_xyz
  'x, y, z'

loop_
  _atom_site_type_symbol
  _atom_site_label
  _atom_site_symmetry_multiplicity
  _atom_site_fract_x
  _atom_site_fract_y
  _atom_site_fract_z
  _atom_site_occupancy
  La  La1       1.0  0.66062832  0.83937168  0.50206566  1.0000
  La  La2       1.0  0.16062832  0.66062832  0.49793434  1.0000
  La  La3       1.0  0.83937168  0.33937167999999995  0.49793434  1.0000
  La  La4       1.0  0.33937167999999995  0.16062832  0.50206566  1.0000
  Be  Be1       1.0  0.36652398  0.86652398  0.03895659  1.0000
  Be  Be2       1.0  0.86652398  0.63347602  0.96104341  1.0000
  Be  Be3       1.0  0.63347602  0.13347602  0.03895659  1.0000
  Be  Be4       1.0  0.13347602  0.36652398  0.96104341  1.0000
  Ge  Ge1       1.0  0.5  0.5  0.0  1.0000
  Ge  Ge2       1.0  0.0  0.0  0.0  1.0000
  O   O1        1.0  0.92253859  0.8264715  0.8019454600000001  1.0000
  O   O2        1.0  0.1735285  0.92253859  0.19805454  1.0000
  O   O3        1.0  0.57746141  0.3264715  0.19805454  1.0000
  O   O4        1.0  0.42253859  0.6735285  0.19805454  1.0000
  O   O5        1.0  0.3264715  0.42253859  0.8019454600000001  1.0000
  O   O6        1.0  0.6735285  0.57746141  0.8019454600000001  1.0000
  O   O7        1.0  0.0  0.5  0.83470744  1.0000
  O   O8        1.0  0.5  0.0  0.16529256  1.0000
  O   O9        1.0  0.14247074999999998  0.35752925  0.28086374  1.0000
  O   O10       1.0  0.64247075  0.14247074999999998  0.71913626  1.0000
  O   O11       1.0  0.35752925  0.85752925  0.71913626  1.0000
  O   O12       1.0  0.85752925  0.64247075  0.28086374  1.0000
  O   O13       1.0  0.07746140999999998  0.1735285  0.8019454600000001  1.0000
  O   O14       1.0  0.8264715  0.07746140999999998  0.19805454  1.0000
