data_image0
_chemical_formula_structural       Hg4Mo4O14
_chemical_formula_sum              "Hg4 Mo4 O14"
_cell_length_a       3.9726533644476403
_cell_length_b       6.033247573506542
_cell_length_c       14.182007879156117
_cell_angle_alpha    99.6759244831635
_cell_angle_beta     90.00486296901309
_cell_angle_gamma    89.99650257320874

_space_group_name_H-M_alt    "P 1"
_space_group_IT_number       1

loop_
  _space_group_symop_operation_xyz
  'x, y, z'

loop_
  _atom_site_type_symbol
  _atom_site_label
  _atom_site_symmetry_multiplicity
  _atom_site_fract_x
  _atom_site_fract_y
  _atom_site_fract_z
  _atom_site_occupancy
  Hg  Hg1       1.0  0.33531231  0.58158099  0.9362574500000002  1.0000
  Hg  Hg2       1.0  0.33533064  0.91837647  0.5637208900000001  1.0000
  Hg  Hg3       1.0  0.6646873799999999  0.41841932000000004  0.06374315000000001  1.0000
  Hg  Hg4       1.0  0.66466873  0.08162406  0.4362790200000001  1.0000
  Mo  Mo1       1.0  0.96470111  0.49504276  0.6844414600000001  1.0000
  Mo  Mo2       1.0  0.9647646499999999  0.00490833  0.81549785  1.0000
  Mo  Mo3       1.0  0.03530066  0.50495655  0.31555895000000006  1.0000
  Mo  Mo4       1.0  0.03523665  0.99509202  0.1845023  1.0000
  O   O1        1.0  0.042626569999999996  0.24996461999999997  0.7499622800000001  1.0000
  O   O2        1.0  0.95737366  0.75003603  0.25003765000000006  1.0000
  O   O3        1.0  0.5289733099999999  0.50586102  0.69611765  1.0000
  O   O4        1.0  0.52898807  0.99407975  0.8038203900000002  1.0000
  O   O5        1.0  0.47102669999999996  0.49413918999999995  0.3038825  1.0000
  O   O6        1.0  0.47101115  0.005919849999999999  0.19617957  1.0000
  O   O7        1.0  0.02527688  0.36326633  0.5692538600000001  1.0000
  O   O8        1.0  0.02535733  0.13670443  0.93068065  1.0000
  O   O9        1.0  0.96853206  0.19686447000000004  0.33115146000000006  1.0000
  O   O10       1.0  0.96843379  0.30318947  0.16891112000000003  1.0000
  O   O11       1.0  0.03146716  0.8031347699999999  0.66884896  1.0000
  O   O12       1.0  0.9747230999999998  0.6367337599999999  0.43074655  1.0000
  O   O13       1.0  0.9746425699999999  0.8632954699999998  0.06931951  1.0000
  O   O14       1.0  0.031566529999999995  0.6968103499999999  0.83108879  1.0000
