data_image0
_chemical_formula_structural       Sr4Gd2Ru2O12
_chemical_formula_sum              "Sr4 Gd2 Ru2 O12"
_cell_length_a       5.783677965743535
_cell_length_b       5.856598140021803
_cell_length_c       8.207819552716352
_cell_angle_alpha    90.00031109262763
_cell_angle_beta     90.45928121865383
_cell_angle_gamma    90.00000074527722

_space_group_name_H-M_alt    "P 1"
_space_group_IT_number       1

loop_
  _space_group_symop_operation_xyz
  'x, y, z'

loop_
  _atom_site_type_symbol
  _atom_site_label
  _atom_site_symmetry_multiplicity
  _atom_site_fract_x
  _atom_site_fract_y
  _atom_site_fract_z
  _atom_site_occupancy
  Sr  Sr1       1.0  0.50963639  0.53904121  0.24930500999999994  1.0000
  Sr  Sr2       1.0  0.99036423  0.03904123  0.25069853999999997  1.0000
  Sr  Sr3       1.0  0.00963577  0.96095877  0.74930146  1.0000
  Sr  Sr4       1.0  0.49036361  0.46095878999999995  0.7506949899999998  1.0000
  Gd  Gd1       1.0  0.5  0.0  0.5  1.0000
  Gd  Gd2       1.0  0.0  0.5  0.0  1.0000
  Ru  Ru1       1.0  0.5  1.4828778043327432e-26  0.0  1.0000
  Ru  Ru2       1.0  0.0  0.49999999999999994  0.4999999999999999  1.0000
  O   O1        1.0  0.92198002  0.52117545  0.7309119899999998  1.0000
  O   O2        1.0  0.57802092  0.021175470000000002  0.7690873499999998  1.0000
  O   O3        1.0  0.07801998  0.4788245500000001  0.26908800999999993  1.0000
  O   O4        1.0  0.42197908000000006  0.97882453  0.23091264999999997  1.0000
  O   O5        1.0  0.80774399  0.7698437900000001  0.4568235399999999  1.0000
  O   O6        1.0  0.69225533  0.26984415  0.04317774  1.0000
  O   O7        1.0  0.19225601  0.23015621000000003  0.5431764599999999  1.0000
  O   O8        1.0  0.30774467  0.73015585  0.9568222599999998  1.0000
  O   O9        1.0  0.23150323  0.19576082999999997  0.9597456099999998  1.0000
  O   O10       1.0  0.26849669  0.69576111  0.5402531499999998  1.0000
  O   O11       1.0  0.76849677  0.8042391700000001  0.04025439  1.0000
  O   O12       1.0  0.73150331  0.30423888999999993  0.45974684999999993  1.0000
