data_image0
_chemical_formula_structural       K2Mn4P4H2O18
_chemical_formula_sum              "K2 Mn4 P4 H2 O18"
_cell_length_a       6.350626662446471
_cell_length_b       7.020398
_cell_length_c       8.970912674385477
_cell_angle_alpha    90.0
_cell_angle_beta     107.23019623584806
_cell_angle_gamma    90.0

_space_group_name_H-M_alt    "P 1"
_space_group_IT_number       1

loop_
  _space_group_symop_operation_xyz
  'x, y, z'

loop_
  _atom_site_type_symbol
  _atom_site_label
  _atom_site_symmetry_multiplicity
  _atom_site_fract_x
  _atom_site_fract_y
  _atom_site_fract_z
  _atom_site_occupancy
  K   K1        1.0  0.950371  0.25  0.8292160000000001  1.0000
  K   K2        1.0  0.049629  0.7500000000000001  0.17078400000000002  1.0000
  Mn  Mn1       1.0  0.5  0.5  0.0  1.0000
  Mn  Mn2       1.0  0.5  0.0  0.0  1.0000
  Mn  Mn3       1.0  0.45960899999999993  0.25  0.28665700000000005  1.0000
  Mn  Mn4       1.0  0.540391  0.7500000000000001  0.713343  1.0000
  P   P1        1.0  0.886498  0.25  0.189556  1.0000
  P   P2        1.0  0.113502  0.7500000000000001  0.810444  1.0000
  P   P3        1.0  0.434481  0.25  0.655835  1.0000
  P   P4        1.0  0.565519  0.7500000000000001  0.34416500000000005  1.0000
  H   H1        1.0  0.08693599999999999  0.25  0.4994840000000001  1.0000
  H   H2        1.0  0.913064  0.7500000000000001  0.500516  1.0000
  O   O1        1.0  0.785742  0.25  0.32769099999999995  1.0000
  O   O2        1.0  0.214258  0.7500000000000001  0.6723090000000002  1.0000
  O   O3        1.0  0.416753  0.25  0.062391999999999996  1.0000
  O   O4        1.0  0.583247  0.7500000000000001  0.937608  1.0000
  O   O5        1.0  0.513337  0.25  0.510396  1.0000
  O   O6        1.0  0.486663  0.7500000000000001  0.4896040000000001  1.0000
  O   O7        1.0  0.137645  0.25  0.2585180000000001  1.0000
  O   O8        1.0  0.862355  0.7500000000000001  0.741482  1.0000
  O   O9        1.0  0.17121  0.25  0.6109580000000001  1.0000
  O   O10       1.0  0.82879  0.7500000000000001  0.389042  1.0000
  O   O11       1.0  0.813584  0.430704  0.08484399999999997  1.0000
  O   O12       1.0  0.18641600000000003  0.930704  0.9151560000000001  1.0000
  O   O13       1.0  0.18641600000000003  0.5692960000000001  0.9151560000000001  1.0000
  O   O14       1.0  0.813584  0.069296  0.08484399999999997  1.0000
  O   O15       1.0  0.519843  0.42812800000000006  0.7567390000000002  1.0000
  O   O16       1.0  0.48015699999999994  0.9281280000000001  0.243261  1.0000
  O   O17       1.0  0.48015699999999994  0.571872  0.243261  1.0000
  O   O18       1.0  0.519843  0.071872  0.7567390000000002  1.0000
