data_image0
_chemical_formula_structural       Gd6Ga4Ni12
_chemical_formula_sum              "Gd6 Ga4 Ni12"
_cell_length_a       7.736870039516497
_cell_length_b       7.736870039516497
_cell_length_c       7.736870039516497
_cell_angle_alpha    109.47122063449069
_cell_angle_beta     109.47122063449069
_cell_angle_gamma    109.47122063449069

_space_group_name_H-M_alt    "P 1"
_space_group_IT_number       1

loop_
  _space_group_symop_operation_xyz
  'x, y, z'

loop_
  _atom_site_type_symbol
  _atom_site_label
  _atom_site_symmetry_multiplicity
  _atom_site_fract_x
  _atom_site_fract_y
  _atom_site_fract_z
  _atom_site_occupancy
  Gd  Gd1       1.0  0.710359  0.710359  0.0  1.0000
  Gd  Gd2       1.0  0.289641  0.0  0.289641  1.0000
  Gd  Gd3       1.0  1.0822328101966865e-17  0.289641  0.289641  1.0000
  Gd  Gd4       1.0  0.289641  0.289641  0.0  1.0000
  Gd  Gd5       1.0  0.710359  0.0  0.710359  1.0000
  Gd  Gd6       1.0  3.308464073661876e-17  0.710359  0.710359  1.0000
  Ga  Ga1       1.0  0.0  0.0  0.5  1.0000
  Ga  Ga2       1.0  0.0  0.5  0.0  1.0000
  Ga  Ga3       1.0  0.5  0.0  0.0  1.0000
  Ga  Ga4       1.0  0.5  0.5  0.5  1.0000
  Ni  Ni1       1.0  0.3386060000000002  0.3386060000000001  0.6772110000000001  1.0000
  Ni  Ni2       1.0  0.661394  0.0  0.338606  1.0000
  Ni  Ni3       1.0  2.7559569669386905e-17  0.661394  0.338606  1.0000
  Ni  Ni4       1.0  0.661394  0.338606  0.0  1.0000
  Ni  Ni5       1.0  0.3386060000000002  0.6772110000000001  0.338606  1.0000
  Ni  Ni6       1.0  2.795158156187093e-17  0.338606  0.661394  1.0000
  Ni  Ni7       1.0  0.3386060000000001  0.661394  0.0  1.0000
  Ni  Ni8       1.0  0.338606  0.0  0.661394  1.0000
  Ni  Ni9       1.0  0.6772110000000001  0.33860600000000013  0.3386060000000001  1.0000
  Ni  Ni10      1.0  0.661394  0.661394  0.32278900000000005  1.0000
  Ni  Ni11      1.0  0.6613939999999999  0.32278899999999994  0.661394  1.0000
  Ni  Ni12      1.0  0.322789  0.661394  0.661394  1.0000
