data_image0
_chemical_formula_structural       Nd2Fe17N3
_chemical_formula_sum              "Nd2 Fe17 N3"
_cell_length_a       6.553167855174549
_cell_length_b       6.553167855174549
_cell_length_c       6.553167478006723
_cell_angle_alpha    83.61919052698433
_cell_angle_beta     83.61919052698433
_cell_angle_gamma    83.61918533290529

_space_group_name_H-M_alt    "P 1"
_space_group_IT_number       1

loop_
  _space_group_symop_operation_xyz
  'x, y, z'

loop_
  _atom_site_type_symbol
  _atom_site_label
  _atom_site_symmetry_multiplicity
  _atom_site_fract_x
  _atom_site_fract_y
  _atom_site_fract_z
  _atom_site_occupancy
  Nd  Nd1       1.0  0.655568  0.6555680000000002  0.655568  1.0000
  Nd  Nd2       1.0  0.344432  0.344432  0.34443199999999996  1.0000
  Fe  Fe1       1.0  0.906184  0.9061839999999999  0.906184  1.0000
  Fe  Fe2       1.0  0.0  0.0  0.5  1.0000
  Fe  Fe3       1.0  0.0  0.5  0.0  1.0000
  Fe  Fe4       1.0  0.5  2.0345221845392436e-17  0.0  1.0000
  Fe  Fe5       1.0  0.7173900000000001  0.28261  0.0  1.0000
  Fe  Fe6       1.0  0.2826099999999999  2.5413022281488054e-17  0.71739  1.0000
  Fe  Fe7       1.0  0.0  0.71739  0.28261  1.0000
  Fe  Fe8       1.0  0.2826100000000001  0.71739  0.0  1.0000
  Fe  Fe9       1.0  0.71739  9.52988335555802e-18  0.28261  1.0000
  Fe  Fe10      1.0  4.214133167515102e-17  0.2826099999999999  0.71739  1.0000
  Fe  Fe11      1.0  0.14046899999999982  0.6592850000000001  0.659285  1.0000
  Fe  Fe12      1.0  0.6592849999999998  0.6592850000000001  0.140469  1.0000
  Fe  Fe13      1.0  0.6592849999999999  0.140469  0.659285  1.0000
  Fe  Fe14      1.0  0.34071499999999993  0.859531  0.340715  1.0000
  Fe  Fe15      1.0  0.8595309999999999  0.340715  0.340715  1.0000
  Fe  Fe16      1.0  0.34071499999999993  0.34071499999999993  0.8595310000000002  1.0000
  Fe  Fe17      1.0  0.093816  0.093816  0.093816  1.0000
  N   N1        1.0  0.0  0.5  0.5  1.0000
  N   N2        1.0  0.5  0.0  0.5  1.0000
  N   N3        1.0  0.5  0.5  0.0  1.0000
