data_image0
_chemical_formula_structural       Gd4Ni4O12
_chemical_formula_sum              "Gd4 Ni4 O12"
_cell_length_a       5.23580731
_cell_length_b       5.49316529
_cell_length_c       7.47467175
_cell_angle_alpha    90.0
_cell_angle_beta     90.0
_cell_angle_gamma    90.0

_space_group_name_H-M_alt    "P 1"
_space_group_IT_number       1

loop_
  _space_group_symop_operation_xyz
  'x, y, z'

loop_
  _atom_site_type_symbol
  _atom_site_label
  _atom_site_symmetry_multiplicity
  _atom_site_fract_x
  _atom_site_fract_y
  _atom_site_fract_z
  _atom_site_occupancy
  Gd  Gd1       1.0  0.98402748  0.06537388  0.25  1.0000
  Gd  Gd2       1.0  0.48402748  0.43462612  0.7500000000000001  1.0000
  Gd  Gd3       1.0  0.51597252  0.56537388  0.25  1.0000
  Gd  Gd4       1.0  0.01597252  0.9346261199999999  0.7500000000000001  1.0000
  Ni  Ni1       1.0  0.5  0.0  0.0  1.0000
  Ni  Ni2       1.0  0.0  0.5  0.0  1.0000
  Ni  Ni3       1.0  0.0  0.5  0.5  1.0000
  Ni  Ni4       1.0  0.5  0.0  0.5  1.0000
  O   O1        1.0  0.08819931000000002  0.47878149  0.25  1.0000
  O   O2        1.0  0.5881993100000001  0.02121851  0.7500000000000001  1.0000
  O   O3        1.0  0.41180069  0.97878149  0.25  1.0000
  O   O4        1.0  0.91180069  0.52121851  0.7500000000000001  1.0000
  O   O5        1.0  0.7010014500000001  0.29833368  0.04557856  1.0000
  O   O6        1.0  0.20100145000000003  0.20166632  0.95442144  1.0000
  O   O7        1.0  0.79899855  0.79833368  0.45442144000000007  1.0000
  O   O8        1.0  0.29899855000000003  0.70166632  0.54557856  1.0000
  O   O9        1.0  0.29899855000000003  0.70166632  0.95442144  1.0000
  O   O10       1.0  0.79899855  0.79833368  0.04557856  1.0000
  O   O11       1.0  0.20100145000000003  0.20166632  0.54557856  1.0000
  O   O12       1.0  0.7010014500000001  0.29833368  0.45442144000000007  1.0000
