data_image0
_chemical_formula_structural       Er4B16Mo4
_chemical_formula_sum              "Er4 B16 Mo4"
_cell_length_a       3.606125
_cell_length_b       6.007472
_cell_length_c       11.617538
_cell_angle_alpha    90.0
_cell_angle_beta     90.0
_cell_angle_gamma    90.0

_space_group_name_H-M_alt    "P 1"
_space_group_IT_number       1

loop_
  _space_group_symop_operation_xyz
  'x, y, z'

loop_
  _atom_site_type_symbol
  _atom_site_label
  _atom_site_symmetry_multiplicity
  _atom_site_fract_x
  _atom_site_fract_y
  _atom_site_fract_z
  _atom_site_occupancy
  Er  Er1       1.0  0.0  0.626887  0.35013200000000005  1.0000
  Er  Er2       1.0  0.0  0.373113  0.649868  1.0000
  Er  Er3       1.0  0.0  0.12688699999999997  0.149868  1.0000
  Er  Er4       1.0  0.0  0.873113  0.850132  1.0000
  B   B1        1.0  0.5  0.7866679999999999  0.186706  1.0000
  B   B2        1.0  0.5  0.21333199999999997  0.813294  1.0000
  B   B3        1.0  0.5  0.286668  0.313294  1.0000
  B   B4        1.0  0.5  0.713332  0.686706  1.0000
  B   B5        1.0  0.5  0.867555  0.032213  1.0000
  B   B6        1.0  0.5  0.13244499999999998  0.967787  1.0000
  B   B7        1.0  0.5  0.367555  0.467787  1.0000
  B   B8        1.0  0.5  0.632445  0.532213  1.0000
  B   B9        1.0  0.5  0.8850089999999999  0.452623  1.0000
  B   B10       1.0  0.5  0.114991  0.547377  1.0000
  B   B11       1.0  0.5  0.38500899999999993  0.047376999999999996  1.0000
  B   B12       1.0  0.5  0.614991  0.952623  1.0000
  B   B13       1.0  0.5  0.9756809999999999  0.306379  1.0000
  B   B14       1.0  0.5  0.024318999999999997  0.693621  1.0000
  B   B15       1.0  0.5  0.47568099999999996  0.19362100000000002  1.0000
  B   B16       1.0  0.5  0.524319  0.806379  1.0000
  Mo  Mo1       1.0  0.0  0.6299039999999999  0.083752  1.0000
  Mo  Mo2       1.0  0.0  0.370096  0.916248  1.0000
  Mo  Mo3       1.0  0.0  0.129904  0.416248  1.0000
  Mo  Mo4       1.0  0.0  0.870096  0.583752  1.0000
