data_image0
_chemical_formula_structural       Nb4Se4I12
_chemical_formula_sum              "Nb4 Se4 I12"
_cell_length_a       8.160350512579823
_cell_length_b       8.160350512579823
_cell_length_c       13.831960657302169
_cell_angle_alpha    85.96045846814276
_cell_angle_beta     85.96045846814276
_cell_angle_gamma    126.78842384693871

_space_group_name_H-M_alt    "P 1"
_space_group_IT_number       1

loop_
  _space_group_symop_operation_xyz
  'x, y, z'

loop_
  _atom_site_type_symbol
  _atom_site_label
  _atom_site_symmetry_multiplicity
  _atom_site_fract_x
  _atom_site_fract_y
  _atom_site_fract_z
  _atom_site_occupancy
  Nb  Nb1       1.0  0.8716029399999999  0.9926911299999999  0.15638455  1.0000
  Nb  Nb2       1.0  0.007308870000000023  0.12839706000000004  0.34361544999999993  1.0000
  Nb  Nb3       1.0  0.12839706000000006  0.007308870000000044  0.8436154499999999  1.0000
  Nb  Nb4       1.0  0.9926911300000001  0.8716029400000002  0.6563845499999998  1.0000
  Se  Se1       1.0  0.96137575  0.33568899  0.20533284999999996  1.0000
  Se  Se2       1.0  0.66431101  0.038624249999999985  0.29466714999999993  1.0000
  Se  Se3       1.0  0.038624250000000075  0.6643110100000001  0.79466715  1.0000
  Se  Se4       1.0  0.33568899  0.96137575  0.7053328499999999  1.0000
  I   I1        1.0  0.94634192  0.75036878  0.03326758999999999  1.0000
  I   I2        1.0  0.24963122000000004  0.053658080000000025  0.46673240999999993  1.0000
  I   I3        1.0  0.05365808000000001  0.24963122000000001  0.9667324099999999  1.0000
  I   I4        1.0  0.75036878  0.94634192  0.53326759  1.0000
  I   I5        1.0  0.4901502000000001  0.7756084300000001  0.09035098  1.0000
  I   I6        1.0  0.22439157000000004  0.5098498  0.4096490199999999  1.0000
  I   I7        1.0  0.5098498  0.22439157  0.9096490199999999  1.0000
  I   I8        1.0  0.7756084299999999  0.4901501999999999  0.59035098  1.0000
  I   I9        1.0  0.8018651699999999  0.6989112699999999  0.30642580999999997  1.0000
  I   I10       1.0  0.30108873  0.19813483  0.19357418999999995  1.0000
  I   I11       1.0  0.19813483000000007  0.3010887300000001  0.6935741899999999  1.0000
  I   I12       1.0  0.69891127  0.80186517  0.80642581  1.0000
