data_image0
_chemical_formula_structural       Hf2Co21B6
_chemical_formula_sum              "Hf2 Co21 B6"
_cell_length_a       7.468184637034089
_cell_length_b       7.468184637034089
_cell_length_c       7.468184637034089
_cell_angle_alpha    59.99999999999999
_cell_angle_beta     59.99999999999999
_cell_angle_gamma    59.99999999999999

_space_group_name_H-M_alt    "P 1"
_space_group_IT_number       1

loop_
  _space_group_symop_operation_xyz
  'x, y, z'

loop_
  _atom_site_type_symbol
  _atom_site_label
  _atom_site_symmetry_multiplicity
  _atom_site_fract_x
  _atom_site_fract_y
  _atom_site_fract_z
  _atom_site_occupancy
  Hf  Hf1       1.0  0.75  0.75  0.75  1.0000
  Hf  Hf2       1.0  0.25  0.25  0.25  1.0000
  Co  Co1       1.0  0.0  0.0  0.0  1.0000
  Co  Co2       1.0  0.6146909999999999  0.6146909999999999  0.15592599999999993  1.0000
  Co  Co3       1.0  0.6146909999999999  0.1559260000000001  0.614691  1.0000
  Co  Co4       1.0  0.15592600000000018  0.614691  0.6146909999999999  1.0000
  Co  Co5       1.0  0.614691  0.614691  0.6146909999999999  1.0000
  Co  Co6       1.0  0.3853090000000001  0.3853090000000001  0.844074  1.0000
  Co  Co7       1.0  0.3853090000000001  0.844074  0.38530899999999996  1.0000
  Co  Co8       1.0  0.844074  0.385309  0.385309  1.0000
  Co  Co9       1.0  0.385309  0.385309  0.385309  1.0000
  Co  Co10      1.0  0.0  0.0  0.337484  1.0000
  Co  Co11      1.0  0.662516  4.204749976045907e-17  0.33748399999999995  1.0000
  Co  Co12      1.0  4.204749976045907e-17  0.662516  0.33748399999999995  1.0000
  Co  Co13      1.0  0.662516  0.337484  0.0  1.0000
  Co  Co14      1.0  0.0  0.337484  0.0  1.0000
  Co  Co15      1.0  1.6818999904183628e-16  0.3374840000000001  0.6625159999999999  1.0000
  Co  Co16      1.0  0.337484  0.662516  0.0  1.0000
  Co  Co17      1.0  0.3374840000000001  1.6818999904183628e-16  0.6625159999999999  1.0000
  Co  Co18      1.0  0.337484  0.0  0.0  1.0000
  Co  Co19      1.0  0.0  0.0  0.662516  1.0000
  Co  Co20      1.0  0.0  0.662516  0.0  1.0000
  Co  Co21      1.0  0.662516  0.0  0.0  1.0000
  B   B1        1.0  0.7252279999999999  0.7252279999999999  0.274772  1.0000
  B   B2        1.0  0.27477199999999996  0.7252279999999999  0.274772  1.0000
  B   B3        1.0  0.7252279999999999  0.27477199999999996  0.274772  1.0000
  B   B4        1.0  0.2747720000000001  0.2747720000000001  0.7252279999999999  1.0000
  B   B5        1.0  0.725228  0.2747720000000001  0.7252279999999999  1.0000
  B   B6        1.0  0.2747720000000001  0.725228  0.7252279999999999  1.0000
