data_image0
_chemical_formula_structural       Sr2Cu2H12O10
_chemical_formula_sum              "Sr2 Cu2 H12 O10"
_cell_length_a       6.296725
_cell_length_b       5.467378
_cell_length_c       7.977295878227032
_cell_angle_alpha    72.20561901156641
_cell_angle_beta     90.0
_cell_angle_gamma    90.0

_space_group_name_H-M_alt    "P 1"
_space_group_IT_number       1

loop_
  _space_group_symop_operation_xyz
  'x, y, z'

loop_
  _atom_site_type_symbol
  _atom_site_label
  _atom_site_symmetry_multiplicity
  _atom_site_fract_x
  _atom_site_fract_y
  _atom_site_fract_z
  _atom_site_occupancy
  Sr  Sr1       1.0  0.449404  2.0306315470142298e-17  0.24999999999999997  1.0000
  Sr  Sr2       1.0  0.550596  0.0  0.75  1.0000
  Cu  Cu1       1.0  0.0  0.0  0.0  1.0000
  Cu  Cu2       1.0  0.0  4.0612630940284596e-17  0.49999999999999994  1.0000
  H   H1        1.0  0.053345  0.36710299999999996  0.105882  1.0000
  H   H2        1.0  0.705852  0.5675220000000001  0.14570599999999997  1.0000
  H   H3        1.0  0.705852  0.43247800000000003  0.35429399999999994  1.0000
  H   H4        1.0  0.736374  0.6629789999999999  0.5242659999999999  1.0000
  H   H5        1.0  0.294148  0.5675220000000001  0.645706  1.0000
  H   H6        1.0  0.263626  0.33702100000000007  0.475734  1.0000
  H   H7        1.0  0.294148  0.4324780000000001  0.854294  1.0000
  H   H8        1.0  0.736374  0.3370210000000001  0.9757339999999999  1.0000
  H   H9        1.0  0.946655  0.36710299999999996  0.605882  1.0000
  H   H10       1.0  0.263626  0.662979  0.024265999999999996  1.0000
  H   H11       1.0  0.946655  0.632897  0.894118  1.0000
  H   H12       1.0  0.053345  0.6328969999999999  0.39411799999999997  1.0000
  O   O1        1.0  0.842432  0.7171290000000001  0.9481989999999999  1.0000
  O   O2        1.0  0.38908200000000004  0.5000000000000001  0.75  1.0000
  O   O3        1.0  0.278226  0.8486000000000001  0.00020799999999999996  1.0000
  O   O4        1.0  0.721774  0.8486000000000001  0.500208  1.0000
  O   O5        1.0  0.721774  0.15140000000000006  0.9997919999999999  1.0000
  O   O6        1.0  0.842432  0.28287099999999993  0.551801  1.0000
  O   O7        1.0  0.610918  0.5  0.24999999999999997  1.0000
  O   O8        1.0  0.157568  0.282871  0.051801  1.0000
  O   O9        1.0  0.278226  0.15140000000000003  0.49979199999999996  1.0000
  O   O10       1.0  0.157568  0.717129  0.448199  1.0000
