data_image0
_chemical_formula_structural       Rb4Ba4Ta4S16
_chemical_formula_sum              "Rb4 Ba4 Ta4 S16"
_cell_length_a       7.115353
_cell_length_b       9.467714
_cell_length_c       12.643346
_cell_angle_alpha    90.0
_cell_angle_beta     90.0
_cell_angle_gamma    90.0

_space_group_name_H-M_alt    "P 1"
_space_group_IT_number       1

loop_
  _space_group_symop_operation_xyz
  'x, y, z'

loop_
  _atom_site_type_symbol
  _atom_site_label
  _atom_site_symmetry_multiplicity
  _atom_site_fract_x
  _atom_site_fract_y
  _atom_site_fract_z
  _atom_site_occupancy
  Rb  Rb1       1.0  0.7500000000000001  0.362986  0.0884  1.0000
  Rb  Rb2       1.0  0.25  0.137014  0.5884  1.0000
  Rb  Rb3       1.0  0.7500000000000001  0.862986  0.41159999999999997  1.0000
  Rb  Rb4       1.0  0.25  0.637014  0.9115999999999999  1.0000
  Ba  Ba1       1.0  0.7500000000000001  0.020173  0.8252039999999999  1.0000
  Ba  Ba2       1.0  0.25  0.479827  0.325204  1.0000
  Ba  Ba3       1.0  0.7500000000000001  0.520173  0.674796  1.0000
  Ba  Ba4       1.0  0.25  0.979827  0.174796  1.0000
  Ta  Ta1       1.0  0.7500000000000001  0.26951  0.42124199999999995  1.0000
  Ta  Ta2       1.0  0.25  0.23049  0.9212419999999999  1.0000
  Ta  Ta3       1.0  0.7500000000000001  0.76951  0.078758  1.0000
  Ta  Ta4       1.0  0.25  0.73049  0.578758  1.0000
  S   S1        1.0  0.7500000000000001  0.194065  0.592931  1.0000
  S   S2        1.0  0.25  0.305935  0.09293099999999999  1.0000
  S   S3        1.0  0.7500000000000001  0.694065  0.9070689999999999  1.0000
  S   S4        1.0  0.25  0.805935  0.40706899999999996  1.0000
  S   S5        1.0  0.7500000000000001  0.010465  0.08453  1.0000
  S   S6        1.0  0.25  0.489535  0.58453  1.0000
  S   S7        1.0  0.7500000000000001  0.510465  0.41547  1.0000
  S   S8        1.0  0.25  0.989535  0.91547  1.0000
  S   S9        1.0  0.008305  0.184327  0.33745  1.0000
  S   S10       1.0  0.9916950000000001  0.315673  0.83745  1.0000
  S   S11       1.0  0.49169500000000005  0.684327  0.16255  1.0000
  S   S12       1.0  0.508305  0.815673  0.66255  1.0000
  S   S13       1.0  0.9916950000000001  0.815673  0.66255  1.0000
  S   S14       1.0  0.008305  0.684327  0.16255  1.0000
  S   S15       1.0  0.508305  0.315673  0.83745  1.0000
  S   S16       1.0  0.49169500000000005  0.184327  0.33745  1.0000
