data_image0
_chemical_formula_structural       Sr12Ga10N2
_chemical_formula_sum              "Sr12 Ga10 N2"
_cell_length_a       14.080700933882893
_cell_length_b       14.080700851600724
_cell_length_c       14.080700931975413
_cell_angle_alpha    31.193456574795402
_cell_angle_beta     31.193471727683907
_cell_angle_gamma    31.193455794444684

_space_group_name_H-M_alt    "P 1"
_space_group_IT_number       1

loop_
  _space_group_symop_operation_xyz
  'x, y, z'

loop_
  _atom_site_type_symbol
  _atom_site_label
  _atom_site_symmetry_multiplicity
  _atom_site_fract_x
  _atom_site_fract_y
  _atom_site_fract_z
  _atom_site_occupancy
  Sr  Sr1       1.0  0.7845171300000001  0.24219507000000012  0.36474856  1.0000
  Sr  Sr2       1.0  0.24219547000000005  0.36474853  0.78451669  1.0000
  Sr  Sr3       1.0  0.3647483100000001  0.78451711  0.24219516  1.0000
  Sr  Sr4       1.0  0.71549011  0.13525722000000007  0.25780524  1.0000
  Sr  Sr5       1.0  0.13525729  0.25780509000000007  0.7154902  1.0000
  Sr  Sr6       1.0  0.25780518  0.7154903  0.13525714  1.0000
  Sr  Sr7       1.0  0.21550573000000015  0.75781141  0.63526423  1.0000
  Sr  Sr8       1.0  0.75781129  0.63526425  0.21550598  1.0000
  Sr  Sr9       1.0  0.6352644  0.21550577999999995  0.75781139  1.0000
  Sr  Sr10      1.0  0.2844872900000003  0.8647301699999999  0.74218824  1.0000
  Sr  Sr11      1.0  0.8647303199999999  0.7421886300000001  0.28448685  1.0000
  Sr  Sr12      1.0  0.7421885600000002  0.2844868600000001  0.8647302299999999  1.0000
  Ga  Ga1       1.0  0.24998838000000004  0.4564489  0.04353420999999999  1.0000
  Ga  Ga2       1.0  0.19521099  0.19521143  0.19520987  1.0000
  Ga  Ga3       1.0  0.6952054800000003  0.6952055599999999  0.69520573  1.0000
  Ga  Ga4       1.0  0.30477982  0.30477954999999995  0.30477962000000003  1.0000
  Ga  Ga5       1.0  0.8048039999999999  0.80480351  0.80480497  1.0000
  Ga  Ga6       1.0  0.45644817  0.04353363  0.24998933999999998  1.0000
  Ga  Ga7       1.0  0.04353368999999996  0.24998884999999998  0.45644861  1.0000
  Ga  Ga8       1.0  0.7500108500000002  0.54356983  0.95644717  1.0000
  Ga  Ga9       1.0  0.54357027  0.9564471899999999  0.7500105899999999  1.0000
  Ga  Ga10      1.0  0.9564469700000001  0.7500109099999998  0.54357013  1.0000
  N   N1        1.0  0.5000060499999999  0.50000608  0.50000592  1.0000
  N   N2        1.0  0.99999425  0.99999413  0.99999394  1.0000
