data_image0
_chemical_formula_structural       Li4H4S2O10
_chemical_formula_sum              "Li4 H4 S2 O10"
_cell_length_a       4.90399
_cell_length_b       5.555894
_cell_length_c       8.269645510084757
_cell_angle_alpha    72.89174517509039
_cell_angle_beta     90.0
_cell_angle_gamma    90.0

_space_group_name_H-M_alt    "P 1"
_space_group_IT_number       1

loop_
  _space_group_symop_operation_xyz
  'x, y, z'

loop_
  _atom_site_type_symbol
  _atom_site_label
  _atom_site_symmetry_multiplicity
  _atom_site_fract_x
  _atom_site_fract_y
  _atom_site_fract_z
  _atom_site_occupancy
  Li  Li1       1.0  0.510576  0.5602659999999999  0.6051019999999999  1.0000
  Li  Li2       1.0  0.000971  0.696686  0.993212  1.0000
  Li  Li3       1.0  0.010576  0.43973399999999996  0.394898  1.0000
  Li  Li4       1.0  0.500971  0.303314  0.006787999999999999  1.0000
  H   H1        1.0  0.8665279999999999  0.9950609999999999  0.44037199999999993  1.0000
  H   H2        1.0  0.114516  0.030291000000000005  0.30954199999999993  1.0000
  H   H3        1.0  0.366528  0.004938999999999993  0.559628  1.0000
  H   H4        1.0  0.614516  0.9697089999999999  0.6904579999999999  1.0000
  S   S1        1.0  0.9973719999999999  0.293323  0.791514  1.0000
  S   S2        1.0  0.497372  0.706677  0.208486  1.0000
  O   O1        1.0  0.887419  0.43520500000000006  0.6216099999999999  1.0000
  O   O2        1.0  0.38741899999999996  0.564795  0.37839  1.0000
  O   O3        1.0  0.5369779999999998  0.912887  0.598176  1.0000
  O   O4        1.0  0.376077  0.600991  0.07801699999999999  1.0000
  O   O5        1.0  0.29971099999999995  0.326857  0.790315  1.0000
  O   O6        1.0  0.799711  0.6731429999999999  0.20968499999999998  1.0000
  O   O7        1.0  0.8760769999999999  0.39900900000000006  0.921983  1.0000
  O   O8        1.0  0.03697799999999999  0.087113  0.401824  1.0000
  O   O9        1.0  0.9246509999999999  0.023606000000000075  0.8286089999999999  1.0000
  O   O10       1.0  0.42465099999999995  0.976394  0.17139099999999996  1.0000
