data_image0
_chemical_formula_structural       Pb6S2O12
_chemical_formula_sum              "Pb6 S2 O12"
_cell_length_a       8.07892169414805
_cell_length_b       8.07892169414805
_cell_length_c       6.031831
_cell_angle_alpha    90.0
_cell_angle_beta     90.0
_cell_angle_gamma    99.96308842709327

_space_group_name_H-M_alt    "P 1"
_space_group_IT_number       1

loop_
  _space_group_symop_operation_xyz
  'x, y, z'

loop_
  _atom_site_type_symbol
  _atom_site_label
  _atom_site_symmetry_multiplicity
  _atom_site_fract_x
  _atom_site_fract_y
  _atom_site_fract_z
  _atom_site_occupancy
  Pb  Pb1       1.0  0.8990790000000001  0.10092100000000004  0.25  1.0000
  Pb  Pb2       1.0  0.356921  0.17778800000000003  0.25  1.0000
  Pb  Pb3       1.0  0.822212  0.643079  0.25  1.0000
  Pb  Pb4       1.0  0.100921  0.899079  0.75  1.0000
  Pb  Pb5       1.0  0.177788  0.356921  0.75  1.0000
  Pb  Pb6       1.0  0.643079  0.822212  0.75  1.0000
  S   S1        1.0  0.348596  0.651404  0.25  1.0000
  S   S2        1.0  0.651404  0.3485960000000001  0.75  1.0000
  O   O1        1.0  0.300006  0.46212100000000006  0.25  1.0000
  O   O2        1.0  0.143396  0.143396  0.0  1.0000
  O   O3        1.0  0.28154599999999996  0.718454  0.046882  1.0000
  O   O4        1.0  0.28154599999999996  0.718454  0.4531180000000001  1.0000
  O   O5        1.0  0.462121  0.300006  0.75  1.0000
  O   O6        1.0  0.8566040000000003  0.8566040000000001  0.5  1.0000
  O   O7        1.0  0.718454  0.281546  0.546882  1.0000
  O   O8        1.0  0.537879  0.699994  0.25  1.0000
  O   O9        1.0  0.699994  0.537879  0.75  1.0000
  O   O10       1.0  0.718454  0.281546  0.953118  1.0000
  O   O11       1.0  0.8566040000000003  0.8566040000000001  0.0  1.0000
  O   O12       1.0  0.143396  0.143396  0.5  1.0000
