data_image0
_chemical_formula_structural       Cs6Cd6Cl18
_chemical_formula_sum              "Cs6 Cd6 Cl18"
_cell_length_a       7.466469158234409
_cell_length_b       7.466416523526925
_cell_length_c       18.575276510031404
_cell_angle_alpha    90.00006120157302
_cell_angle_beta     89.99979471867496
_cell_angle_gamma    119.9998570819187

_space_group_name_H-M_alt    "P 1"
_space_group_IT_number       1

loop_
  _space_group_symop_operation_xyz
  'x, y, z'

loop_
  _atom_site_type_symbol
  _atom_site_label
  _atom_site_symmetry_multiplicity
  _atom_site_fract_x
  _atom_site_fract_y
  _atom_site_fract_z
  _atom_site_occupancy
  Cs  Cs1       1.0  0.3333334000000001  0.6666665800000001  0.08793351  1.0000
  Cs  Cs2       1.0  0.66666782  0.33333319000000006  0.91206429  1.0000
  Cs  Cs3       1.0  0.66666733  0.33333308000000006  0.58793282  1.0000
  Cs  Cs4       1.0  7.299999999999998e-07  0.99999994  0.24999971000000004  1.0000
  Cs  Cs5       1.0  0.3333336100000002  0.6666666700000002  0.4120657300000001  1.0000
  Cs  Cs6       1.0  7.099999999999992e-07  5.000000000000001e-07  0.7499992700000001  1.0000
  Cd  Cd1       1.0  0.66666679  0.33333322000000004  0.33975237  1.0000
  Cd  Cd2       1.0  0.33330749000000015  0.6666565800000002  0.66024816  1.0000
  Cd  Cd3       1.0  0.66666666  0.33333321000000005  0.16024402  1.0000
  Cd  Cd4       1.0  2.680000000000001e-06  2.7600000000000007e-06  0.49999869999999996  1.0000
  Cd  Cd5       1.0  0.3333334800000003  0.6666643000000002  0.83975563  1.0000
  Cd  Cd6       1.0  1.699999999999998e-07  0.99999929  5.3e-07  1.0000
  Cl  Cl1       1.0  0.8343906000000001  0.16560973000000007  0.08186059  1.0000
  Cl  Cl2       1.0  0.8343907100000001  0.6687801600000001  0.0818606  1.0000
  Cl  Cl3       1.0  0.83439187  0.16560851000000004  0.41813937  1.0000
  Cl  Cl4       1.0  0.16561097000000008  0.33122021000000007  0.5818604  1.0000
  Cl  Cl5       1.0  0.8343925700000002  0.6687832000000002  0.41813947  1.0000
  Cl  Cl6       1.0  0.98690947  0.49345456000000015  0.24999963000000006  1.0000
  Cl  Cl7       1.0  0.33122006000000004  0.1656093200000001  0.0818606  1.0000
  Cl  Cl8       1.0  0.5065455700000001  0.49345482000000007  0.24999961000000004  1.0000
  Cl  Cl9       1.0  0.33121772  0.16560847000000004  0.41813952  1.0000
  Cl  Cl10      1.0  0.6687821300000001  0.8343909300000001  0.9181390800000001  1.0000
  Cl  Cl11      1.0  0.16561016  0.8343906  0.9181392099999999  1.0000
  Cl  Cl12      1.0  0.16560958000000023  0.8343917800000002  0.58185962  1.0000
  Cl  Cl13      1.0  0.6687894900000002  0.8343944700000002  0.58185991  1.0000
  Cl  Cl14      1.0  0.50654571  0.013090399999999988  0.24999938  1.0000
  Cl  Cl15      1.0  0.16560960000000005  0.33121825000000005  0.91813931  1.0000
  Cl  Cl16      1.0  0.4934589100000001  0.9869163400000001  0.75000418  1.0000
  Cl  Cl17      1.0  0.4934572700000001  0.5065442000000001  0.75000337  1.0000
  Cl  Cl18      1.0  0.013087760000000094  0.5065437300000001  0.75000339  1.0000
