data_image0
_chemical_formula_structural       Rb8Be4F16
_chemical_formula_sum              "Rb8 Be4 F16"
_cell_length_a       5.987671
_cell_length_b       7.783467
_cell_length_c       10.48827
_cell_angle_alpha    90.0
_cell_angle_beta     90.0
_cell_angle_gamma    90.0

_space_group_name_H-M_alt    "P 1"
_space_group_IT_number       1

loop_
  _space_group_symop_operation_xyz
  'x, y, z'

loop_
  _atom_site_type_symbol
  _atom_site_label
  _atom_site_symmetry_multiplicity
  _atom_site_fract_x
  _atom_site_fract_y
  _atom_site_fract_z
  _atom_site_occupancy
  Rb  Rb1       1.0  0.7544359999999999  0.338502  0.587808  1.0000
  Rb  Rb2       1.0  0.254436  0.661498  0.41219199999999995  1.0000
  Rb  Rb3       1.0  0.254436  0.16149800000000003  0.087808  1.0000
  Rb  Rb4       1.0  0.7544359999999999  0.838502  0.912192  1.0000
  Rb  Rb5       1.0  0.257932  0.4973620000000001  0.810765  1.0000
  Rb  Rb6       1.0  0.757932  0.502638  0.189235  1.0000
  Rb  Rb7       1.0  0.757932  0.0026380000000000006  0.310765  1.0000
  Rb  Rb8       1.0  0.257932  0.9973620000000001  0.689235  1.0000
  Be  Be1       1.0  0.753958  0.266834  0.912922  1.0000
  Be  Be2       1.0  0.253958  0.7331660000000001  0.08707799999999999  1.0000
  Be  Be3       1.0  0.253958  0.233166  0.412922  1.0000
  Be  Be4       1.0  0.753958  0.766834  0.587078  1.0000
  F   F1        1.0  0.546163  0.195315  0.839006  1.0000
  F   F2        1.0  0.046163  0.804685  0.160994  1.0000
  F   F3        1.0  0.046163  0.304685  0.339006  1.0000
  F   F4        1.0  0.546163  0.6953150000000001  0.6609939999999999  1.0000
  F   F5        1.0  0.9746739999999999  0.20537800000000003  0.8453099999999999  1.0000
  F   F6        1.0  0.474674  0.794622  0.15469  1.0000
  F   F7        1.0  0.474674  0.29462200000000005  0.34531  1.0000
  F   F8        1.0  0.9746739999999999  0.7053780000000001  0.65469  1.0000
  F   F9        1.0  0.743295  0.466947  0.9156109999999998  1.0000
  F   F10       1.0  0.24329499999999998  0.533053  0.084389  1.0000
  F   F11       1.0  0.24329499999999998  0.033053  0.415611  1.0000
  F   F12       1.0  0.743295  0.9669470000000001  0.584389  1.0000
  F   F13       1.0  0.251542  0.312434  0.55247  1.0000
  F   F14       1.0  0.751542  0.6875660000000001  0.44753  1.0000
  F   F15       1.0  0.751542  0.187566  0.05247  1.0000
  F   F16       1.0  0.251542  0.812434  0.9475299999999999  1.0000
