data_image0
_chemical_formula_structural       Hf2Se4Cl24
_chemical_formula_sum              "Hf2 Se4 Cl24"
_cell_length_a       12.723584832139663
_cell_length_b       12.48893393651376
_cell_length_c       8.816683021881309
_cell_angle_alpha    70.9866899180794
_cell_angle_beta     68.12709015837481
_cell_angle_gamma    40.94357305828233

_space_group_name_H-M_alt    "P 1"
_space_group_IT_number       1

loop_
  _space_group_symop_operation_xyz
  'x, y, z'

loop_
  _atom_site_type_symbol
  _atom_site_label
  _atom_site_symmetry_multiplicity
  _atom_site_fract_x
  _atom_site_fract_y
  _atom_site_fract_z
  _atom_site_occupancy
  Hf  Hf1       1.0  0.87414087  0.87411356  0.62587562  1.0000
  Hf  Hf2       1.0  0.6240476499999998  0.62411346  0.3759590400000001  1.0000
  Se  Se1       1.0  0.42486397  0.98716307  0.02397978999999999  1.0000
  Se  Se2       1.0  0.22600363999999984  0.6858578200000002  0.8255450200000001  1.0000
  Se  Se3       1.0  0.9872164400000001  0.4247402800000001  0.5641155099999999  1.0000
  Se  Se4       1.0  0.6857346799999999  0.22597774000000012  0.26260870999999997  1.0000
  Cl  Cl1       1.0  0.436379  0.4685651800000001  0.2632854399999999  1.0000
  Cl  Cl2       1.0  0.6609405699999998  0.5888745900000001  0.6483880700000001  1.0000
  Cl  Cl3       1.0  0.2260467299999999  0.3315040200000001  0.44586407999999994  1.0000
  Cl  Cl4       1.0  0.7453529100000001  0.34912644  0.4087402699999999  1.0000
  Cl  Cl5       1.0  0.50813863  0.9004732100000001  0.32831530999999997  1.0000
  Cl  Cl6       1.0  0.92187176  0.9867662599999999  0.7419808800000002  1.0000
  Cl  Cl7       1.0  0.98679495  0.9217883300000002  0.3494815799999998  1.0000
  Cl  Cl8       1.0  0.34910135000000003  0.74535916  0.49663004000000005  1.0000
  Cl  Cl9       1.0  0.9004370600000001  0.50819548  0.26325356999999994  1.0000
  Cl  Cl10      1.0  0.33151806999999994  0.2260903200000001  0.9966610499999999  1.0000
  Cl  Cl11      1.0  0.6600570499999999  0.10023339000000003  0.18365211999999995  1.0000
  Cl  Cl12      1.0  0.25340535000000003  0.80407985  0.91883137  1.0000
  Cl  Cl13      1.0  0.75333832  0.8411227499999999  0.90088353  1.0000
  Cl  Cl14      1.0  0.8411228499999998  0.7533628300000001  0.5045564699999999  1.0000
  Cl  Cl15      1.0  0.14800677999999998  0.60168897  0.66129861  1.0000
  Cl  Cl16      1.0  0.80404978  0.25329520000000005  0.023799499999999984  1.0000
  Cl  Cl17      1.0  0.06588522999999996  0.19453435000000005  0.5900232  1.0000
  Cl  Cl18      1.0  0.10035387000000003  0.66001417  0.055777080000000014  1.0000
  Cl  Cl19      1.0  0.4186193699999999  0.9864473800000001  0.78129173  1.0000
  Cl  Cl20      1.0  0.9864844199999999  0.41868160000000004  0.81372754  1.0000
  Cl  Cl21      1.0  0.58877431  0.66102431  0.10187334000000008  1.0000
  Cl  Cl22      1.0  0.46860934  0.43641145000000003  0.83149353  1.0000
  Cl  Cl23      1.0  0.6017573  0.14801309  0.58893974  1.0000
  Cl  Cl24      1.0  0.19454673999999997  0.06598372000000002  0.14956725999999998  1.0000
