data_image0
_chemical_formula_structural       Mg2C8O12
_chemical_formula_sum              "Mg2 C8 O12"
_cell_length_a       7.8725308136098775
_cell_length_b       7.8725308136098775
_cell_length_c       7.368803275525341
_cell_angle_alpha    62.34925540174321
_cell_angle_beta     62.34925540174321
_cell_angle_gamma    54.727365212319135

_space_group_name_H-M_alt    "P 1"
_space_group_IT_number       1

loop_
  _space_group_symop_operation_xyz
  'x, y, z'

loop_
  _atom_site_type_symbol
  _atom_site_label
  _atom_site_symmetry_multiplicity
  _atom_site_fract_x
  _atom_site_fract_y
  _atom_site_fract_z
  _atom_site_occupancy
  Mg  Mg1       1.0  0.5  0.0  0.5  1.0000
  Mg  Mg2       1.0  5.551115123125783e-17  0.49999999999999994  0.0  1.0000
  C   C1        1.0  0.9263100000000001  0.156559  0.660789  1.0000
  C   C2        1.0  0.843441  0.07368999999999995  0.8392109999999999  1.0000
  C   C3        1.0  0.07369000000000005  0.843441  0.339211  1.0000
  C   C4        1.0  0.15655900000000023  0.9263099999999999  0.160789  1.0000
  C   C5        1.0  0.021929  0.251237  0.44523499999999994  1.0000
  C   C6        1.0  0.7487630000000002  0.9780709999999998  0.054765  1.0000
  C   C7        1.0  0.9780710000000001  0.7487629999999998  0.554765  1.0000
  C   C8        1.0  0.25123700000000004  0.021928999999999997  0.945235  1.0000
  O   O1        1.0  0.20935700000000002  0.23122199999999993  0.405298  1.0000
  O   O2        1.0  0.7687780000000002  0.7906429999999998  0.094702  1.0000
  O   O3        1.0  0.7906430000000001  0.7687779999999997  0.594702  1.0000
  O   O4        1.0  0.23122200000000012  0.209357  0.9052979999999999  1.0000
  O   O5        1.0  0.915378  0.3454669999999999  0.312868  1.0000
  O   O6        1.0  0.654533  0.08462199999999999  0.18713199999999997  1.0000
  O   O7        1.0  0.08462200000000014  0.6545329999999999  0.687132  1.0000
  O   O8        1.0  0.3454670000000002  0.915378  0.8128679999999999  1.0000
  O   O9        1.0  0.5216970000000003  0.7536629999999997  0.422065  1.0000
  O   O10       1.0  0.24633700000000006  0.4783029999999999  0.077935  1.0000
  O   O11       1.0  0.47830300000000003  0.24633699999999994  0.5779349999999999  1.0000
  O   O12       1.0  0.7536630000000002  0.5216969999999999  0.9220649999999999  1.0000
