data_image0
_chemical_formula_structural       Rb8Ag4Br12
_chemical_formula_sum              "Rb8 Ag4 Br12"
_cell_length_a       4.677068250000012
_cell_length_b       9.648952261488015
_cell_length_c       18.75657916046576
_cell_angle_alpha    90.01062044209317
_cell_angle_beta     90.0000013231439
_cell_angle_gamma    89.99999749869637

_space_group_name_H-M_alt    "P 1"
_space_group_IT_number       1

loop_
  _space_group_symop_operation_xyz
  'x, y, z'

loop_
  _atom_site_type_symbol
  _atom_site_label
  _atom_site_symmetry_multiplicity
  _atom_site_fract_x
  _atom_site_fract_y
  _atom_site_fract_z
  _atom_site_occupancy
  Rb  Rb1       1.0  0.7500002  0.92093209  0.71282547  1.0000
  Rb  Rb2       1.0  0.7499999  0.2528714899999999  0.04208173999999999  1.0000
  Rb  Rb3       1.0  0.74999998  0.42098491999999993  0.78706326  1.0000
  Rb  Rb4       1.0  0.24999956  0.5790155599999999  0.21293495  1.0000
  Rb  Rb5       1.0  0.25000063000000006  0.74713158  0.9579134099999999  1.0000
  Rb  Rb6       1.0  0.7499996900000001  0.7528400700000001  0.45794690999999993  1.0000
  Rb  Rb7       1.0  0.25000043  0.24716274999999996  0.54205598  1.0000
  Rb  Rb8       1.0  0.2499998  0.07906885  0.28717438  1.0000
  Ag  Ag1       1.0  0.25  0.12809518  0.86582938  1.0000
  Ag  Ag2       1.0  0.75000009  0.37191205  0.36593688999999996  1.0000
  Ag  Ag3       1.0  0.75000002  0.8719036200000001  0.13416716  1.0000
  Ag  Ag4       1.0  0.24999988000000004  0.62809043  0.63406485  1.0000
  Br  Br1       1.0  0.7500007700000001  0.11965138  0.4277716100000001  1.0000
  Br  Br2       1.0  0.25000001  0.18545258  0.72426751  1.0000
  Br  Br3       1.0  0.24999994  0.38034383  0.9276932499999999  1.0000
  Br  Br4       1.0  0.25000012  0.00214024  0.09938366  1.0000
  Br  Br5       1.0  0.74999968  0.49786127999999996  0.59936698  1.0000
  Br  Br6       1.0  0.7500000800000001  0.31462451999999996  0.22439816999999998  1.0000
  Br  Br7       1.0  0.24999998000000004  0.50214171  0.40064214  1.0000
  Br  Br8       1.0  0.75000004  0.99783315  0.9006222099999999  1.0000
  Br  Br9       1.0  0.24999895000000003  0.8803589500000001  0.5722327699999998  1.0000
  Br  Br10      1.0  0.24999984000000003  0.68537722  0.77560368  1.0000
  Br  Br11      1.0  0.75  0.61965685  0.07229575999999999  1.0000
  Br  Br12      1.0  0.75000041  0.8145487000000001  0.2757298799999999  1.0000
