data_image0
_chemical_formula_structural       Ca2P2H8O10F2
_chemical_formula_sum              "Ca2 P2 H8 O10 F2"
_cell_length_a       8.748547242261026
_cell_length_b       6.5292717768421165
_cell_length_c       5.804229554730758
_cell_angle_alpha    118.85637513684742
_cell_angle_beta     110.64940913561757
_cell_angle_gamma    94.26336680621436

_space_group_name_H-M_alt    "P 1"
_space_group_IT_number       1

loop_
  _space_group_symop_operation_xyz
  'x, y, z'

loop_
  _atom_site_type_symbol
  _atom_site_label
  _atom_site_symmetry_multiplicity
  _atom_site_fract_x
  _atom_site_fract_y
  _atom_site_fract_z
  _atom_site_occupancy
  Ca  Ca1       1.0  0.857756  0.681029  0.6551770000000002  1.0000
  Ca  Ca2       1.0  0.14224399999999998  0.318971  0.344823  1.0000
  P   P1        1.0  0.849632  0.20116400000000006  0.6391700000000001  1.0000
  P   P2        1.0  0.15036799999999997  0.798836  0.36082999999999993  1.0000
  H   H1        1.0  0.6371769999999999  0.9614130000000001  0.8601010000000002  1.0000
  H   H2        1.0  0.362823  0.038587  0.13989900000000002  1.0000
  H   H3        1.0  0.49020100000000005  0.746072  0.5509030000000001  1.0000
  H   H4        1.0  0.5097989999999999  0.253928  0.449097  1.0000
  H   H5        1.0  0.46779899999999996  0.659788  0.926353  1.0000
  H   H6        1.0  0.532201  0.340212  0.07364699999999999  1.0000
  H   H7        1.0  0.316021  0.615061  0.007344000000000092  1.0000
  H   H8        1.0  0.6839789999999999  0.384939  0.992656  1.0000
  O   O1        1.0  0.934073  0.122304  0.849875  1.0000
  O   O2        1.0  0.06592699999999997  0.8776959999999999  0.15012499999999995  1.0000
  O   O3        1.0  0.7254579999999999  0.347878  0.707308  1.0000
  O   O4        1.0  0.274542  0.652122  0.292692  1.0000
  O   O5        1.0  0.968588  0.322955  0.573721  1.0000
  O   O6        1.0  0.031412  0.677045  0.4262790000000001  1.0000
  O   O7        1.0  0.6070329999999999  0.7892829999999998  0.7050640000000001  1.0000
  O   O8        1.0  0.392967  0.210717  0.294936  1.0000
  O   O9        1.0  0.343976  0.610748  0.8523040000000001  1.0000
  O   O10       1.0  0.656024  0.389252  0.1476960000000001  1.0000
  F   F1        1.0  0.268877  0.057338999999999994  0.665847  1.0000
  F   F2        1.0  0.731123  0.942661  0.33415300000000003  1.0000
