data_image0
_chemical_formula_structural       Na6Mo2Cl12
_chemical_formula_sum              "Na6 Mo2 Cl12"
_cell_length_a       6.832109399366402
_cell_length_b       6.832111233071196
_cell_length_c       12.19649788
_cell_angle_alpha    90.0
_cell_angle_beta     90.0
_cell_angle_gamma    120.00000955015558

_space_group_name_H-M_alt    "P 1"
_space_group_IT_number       1

loop_
  _space_group_symop_operation_xyz
  'x, y, z'

loop_
  _atom_site_type_symbol
  _atom_site_label
  _atom_site_symmetry_multiplicity
  _atom_site_fract_x
  _atom_site_fract_y
  _atom_site_fract_z
  _atom_site_occupancy
  Na  Na1       1.0  0.666667  0.33333299999999993  0.03839153000000001  1.0000
  Na  Na2       1.0  0.33333300000000005  0.666667  0.5383915300000001  1.0000
  Na  Na3       1.0  0.33333300000000005  0.666667  0.9616084700000002  1.0000
  Na  Na4       1.0  0.666667  0.33333299999999993  0.46160847  1.0000
  Na  Na5       1.0  0.0  0.0  0.25  1.0000
  Na  Na6       1.0  0.0  0.0  0.75  1.0000
  Mo  Mo1       1.0  0.33333300000000005  0.666667  0.25  1.0000
  Mo  Mo2       1.0  0.666667  0.33333299999999993  0.75  1.0000
  Cl  Cl1       1.0  0.32037993  0.95119995  0.13088911  1.0000
  Cl  Cl2       1.0  0.6308190199999999  0.6796200699999999  0.13088911  1.0000
  Cl  Cl3       1.0  0.04880004999999998  0.36918098  0.13088911  1.0000
  Cl  Cl4       1.0  0.36918098000000005  0.04880104999999999  0.63088911  1.0000
  Cl  Cl5       1.0  0.6796200700000001  0.63081902  0.63088911  1.0000
  Cl  Cl6       1.0  0.9511999500000001  0.32037993  0.63088911  1.0000
  Cl  Cl7       1.0  0.6796200700000001  0.048800049999999984  0.8691108900000001  1.0000
  Cl  Cl8       1.0  0.36918098000000005  0.32037993  0.8691108900000001  1.0000
  Cl  Cl9       1.0  0.9511999500000001  0.63081902  0.8691108900000001  1.0000
  Cl  Cl10      1.0  0.63081902  0.95119895  0.3691108900000001  1.0000
  Cl  Cl11      1.0  0.32037993000000003  0.36918098  0.3691108900000001  1.0000
  Cl  Cl12      1.0  0.04880004999999998  0.67962007  0.3691108900000001  1.0000
