data_image0
_chemical_formula_structural       Li2Ca6Ru2O12
_chemical_formula_sum              "Li2 Ca6 Ru2 O12"
_cell_length_a       6.479960678169891
_cell_length_b       6.479960678169891
_cell_length_c       6.4799609023067415
_cell_angle_alpha    91.94370984614386
_cell_angle_beta     91.94370984614386
_cell_angle_gamma    91.9437128631082

_space_group_name_H-M_alt    "P 1"
_space_group_IT_number       1

loop_
  _space_group_symop_operation_xyz
  'x, y, z'

loop_
  _atom_site_type_symbol
  _atom_site_label
  _atom_site_symmetry_multiplicity
  _atom_site_fract_x
  _atom_site_fract_y
  _atom_site_fract_z
  _atom_site_occupancy
  Li  Li1       1.0  0.25  0.25  0.25  1.0000
  Li  Li2       1.0  0.75  0.75  0.7500000000000001  1.0000
  Ca  Ca1       1.0  0.894593  0.605407  0.25  1.0000
  Ca  Ca2       1.0  0.605407  0.25000000000000006  0.894593  1.0000
  Ca  Ca3       1.0  0.7499999999999999  0.10540699999999993  0.394593  1.0000
  Ca  Ca4       1.0  0.39459300000000014  0.7500000000000001  0.10540700000000001  1.0000
  Ca  Ca5       1.0  0.105407  0.394593  0.7500000000000001  1.0000
  Ca  Ca6       1.0  0.24999999999999986  0.8945929999999999  0.605407  1.0000
  Ru  Ru1       1.0  0.0  0.0  0.0  1.0000
  Ru  Ru2       1.0  0.5  0.5  0.5  1.0000
  O   O1        1.0  0.791546  0.45009299999999997  0.577068  1.0000
  O   O2        1.0  0.922932  0.04990699999999994  0.708454  1.0000
  O   O3        1.0  0.708454  0.922932  0.049907  1.0000
  O   O4        1.0  0.049907000000000014  0.708454  0.922932  1.0000
  O   O5        1.0  0.577068  0.791546  0.4500930000000001  1.0000
  O   O6        1.0  0.450093  0.577068  0.791546  1.0000
  O   O7        1.0  0.422932  0.208454  0.549907  1.0000
  O   O8        1.0  0.5499070000000001  0.42293200000000003  0.208454  1.0000
  O   O9        1.0  0.9500929999999999  0.29154599999999997  0.077068  1.0000
  O   O10       1.0  0.291546  0.077068  0.950093  1.0000
  O   O11       1.0  0.07706800000000015  0.9500930000000002  0.291546  1.0000
  O   O12       1.0  0.2084540000000001  0.5499070000000001  0.422932  1.0000
