data_image0
_chemical_formula_structural       Re2C10I2O10
_chemical_formula_sum              "Re2 C10 I2 O10"
_cell_length_a       6.7806348447214
_cell_length_b       6.7806348447214
_cell_length_c       10.993743
_cell_angle_alpha    90.0
_cell_angle_beta     90.0
_cell_angle_gamma    110.32517840843863

_space_group_name_H-M_alt    "P 1"
_space_group_IT_number       1

loop_
  _space_group_symop_operation_xyz
  'x, y, z'

loop_
  _atom_site_type_symbol
  _atom_site_label
  _atom_site_symmetry_multiplicity
  _atom_site_fract_x
  _atom_site_fract_y
  _atom_site_fract_z
  _atom_site_occupancy
  Re  Re1       1.0  0.14006600000000008  0.8599340000000001  0.75  1.0000
  Re  Re2       1.0  0.859934  0.14006600000000002  0.25  1.0000
  C   C1        1.0  0.682523  0.946485  0.122074  1.0000
  C   C2        1.0  0.317477  0.05351500000000003  0.6220740000000001  1.0000
  C   C3        1.0  0.684036  0.315964  0.25  1.0000
  C   C4        1.0  0.05351500000000002  0.317477  0.377926  1.0000
  C   C5        1.0  0.9464850000000001  0.6825230000000001  0.6220740000000001  1.0000
  C   C6        1.0  0.315964  0.684036  0.75  1.0000
  C   C7        1.0  0.9464850000000001  0.6825230000000001  0.8779260000000001  1.0000
  C   C8        1.0  0.05351500000000002  0.317477  0.122074  1.0000
  C   C9        1.0  0.317477  0.05351500000000003  0.8779260000000001  1.0000
  C   C10       1.0  0.682523  0.946485  0.377926  1.0000
  I   I1        1.0  0.11549600000000003  0.884504  0.25  1.0000
  I   I2        1.0  0.8845039999999998  0.11549600000000002  0.75  1.0000
  O   O1        1.0  0.41885999999999995  0.167083  0.5498800000000001  1.0000
  O   O2        1.0  0.8329169999999999  0.58114  0.95012  1.0000
  O   O3        1.0  0.5811399999999999  0.8329169999999999  0.4501200000000001  1.0000
  O   O4        1.0  0.420422  0.579578  0.75  1.0000
  O   O5        1.0  0.5811399999999999  0.8329169999999999  0.04988  1.0000
  O   O6        1.0  0.167083  0.41886  0.04988  1.0000
  O   O7        1.0  0.5795780000000001  0.4204220000000001  0.25  1.0000
  O   O8        1.0  0.8329169999999999  0.58114  0.5498800000000001  1.0000
  O   O9        1.0  0.41885999999999995  0.167083  0.95012  1.0000
  O   O10       1.0  0.167083  0.41886  0.4501200000000001  1.0000
