data_image0
_chemical_formula_structural       K8Sn4Te12
_chemical_formula_sum              "K8 Sn4 Te12"
_cell_length_a       12.436653281188054
_cell_length_b       12.436653281188054
_cell_length_c       8.76975945
_cell_angle_alpha    90.0
_cell_angle_beta     90.0
_cell_angle_gamma    138.86239622940496

_space_group_name_H-M_alt    "P 1"
_space_group_IT_number       1

loop_
  _space_group_symop_operation_xyz
  'x, y, z'

loop_
  _atom_site_type_symbol
  _atom_site_label
  _atom_site_symmetry_multiplicity
  _atom_site_fract_x
  _atom_site_fract_y
  _atom_site_fract_z
  _atom_site_occupancy
  K   K1        1.0  0.07767822999999992  0.9223217699999999  0.0  1.0000
  K   K2        1.0  0.42232177000000004  0.5776782300000001  0.5  1.0000
  K   K3        1.0  0.92232177  0.07767823000000011  0.0  1.0000
  K   K4        1.0  0.57767823  0.4223217700000001  0.5  1.0000
  K   K5        1.0  0.23438325000000007  0.7656167500000001  0.0  1.0000
  K   K6        1.0  0.73438325  0.26561675  0.5  1.0000
  K   K7        1.0  0.26561675  0.73438325  0.5  1.0000
  K   K8        1.0  0.76561675  0.23438325  0.0  1.0000
  Sn  Sn1       1.0  0.4155744  0.5844256  0.0  1.0000
  Sn  Sn2       1.0  0.08442559999999995  0.9155744  0.5  1.0000
  Sn  Sn3       1.0  0.5844256  0.41557440000000007  0.0  1.0000
  Sn  Sn4       1.0  0.9155744  0.08442559999999999  0.5  1.0000
  Te  Te1       1.0  0.3344117  0.035134570000000025  0.68523963  1.0000
  Te  Te2       1.0  0.53513457  0.8344117000000001  0.81476037  1.0000
  Te  Te3       1.0  0.16558830000000005  0.4648654300000001  0.18523963  1.0000
  Te  Te4       1.0  0.96486543  0.6655883000000001  0.31476037  1.0000
  Te  Te5       1.0  0.6655883  0.9648654300000001  0.31476037  1.0000
  Te  Te6       1.0  0.46486543  0.1655883  0.18523963  1.0000
  Te  Te7       1.0  0.8344117  0.53513457  0.81476037  1.0000
  Te  Te8       1.0  0.035134570000000045  0.33441170000000003  0.68523963  1.0000
  Te  Te9       1.0  0.8330720499999998  0.83307205  0.66666965  1.0000
  Te  Te10      1.0  0.33307205  0.33307205000000006  0.8333303499999999  1.0000
  Te  Te11      1.0  0.66692795  0.6669279500000002  0.16666965  1.0000
  Te  Te12      1.0  0.16692795  0.16692795  0.33333035  1.0000
