data_image0
_chemical_formula_structural       Cs12Si4O14
_chemical_formula_sum              "Cs12 Si4 O14"
_cell_length_a       9.57460585
_cell_length_b       7.164339200396493
_cell_length_c       11.992525273532484
_cell_angle_alpha    53.71399706572005
_cell_angle_beta     90.0
_cell_angle_gamma    90.0

_space_group_name_H-M_alt    "P 1"
_space_group_IT_number       1

loop_
  _space_group_symop_operation_xyz
  'x, y, z'

loop_
  _atom_site_type_symbol
  _atom_site_label
  _atom_site_symmetry_multiplicity
  _atom_site_fract_x
  _atom_site_fract_y
  _atom_site_fract_z
  _atom_site_occupancy
  Cs  Cs1       1.0  0.35443527  0.51291837  0.59799615  1.0000
  Cs  Cs2       1.0  0.14556473  0.51291837  0.09799615  1.0000
  Cs  Cs3       1.0  0.64556473  0.48708163  0.40200385000000005  1.0000
  Cs  Cs4       1.0  0.97450021  0.7062010500000002  0.5445016  1.0000
  Cs  Cs5       1.0  0.47450021  0.29379895  0.9554984  1.0000
  Cs  Cs6       1.0  0.02549979  0.29379894999999995  0.4554984  1.0000
  Cs  Cs7       1.0  0.52549979  0.70620105  0.04450160000000001  1.0000
  Cs  Cs8       1.0  0.27341843  0.88268261  0.7287309700000001  1.0000
  Cs  Cs9       1.0  0.77341843  0.11731739000000001  0.77126903  1.0000
  Cs  Cs10      1.0  0.72658157  0.11731738999999995  0.2712690300000001  1.0000
  Cs  Cs11      1.0  0.22658157  0.8826826099999999  0.22873097000000003  1.0000
  Cs  Cs12      1.0  0.85443527  0.4870816300000001  0.9020038500000002  1.0000
  Si  Si1       1.0  0.62780525  0.84193519  0.6178854  1.0000
  Si  Si2       1.0  0.87219475  0.8419351899999999  0.11788540000000003  1.0000
  Si  Si3       1.0  0.37219475  0.15806481000000003  0.3821146  1.0000
  Si  Si4       1.0  0.12780525000000004  0.15806481000000008  0.8821146  1.0000
  O   O1        1.0  0.26820145  0.9959371399999998  0.9376258100000002  1.0000
  O   O2        1.0  0.0  0.0  0.0  1.0000
  O   O3        1.0  0.5  0.0  0.5  1.0000
  O   O4        1.0  0.9243283800000001  0.77957684  0.2662208  1.0000
  O   O5        1.0  0.76820145  0.004062860000000002  0.56237419  1.0000
  O   O6        1.0  0.73179855  0.0040628599999999945  0.06237419000000001  1.0000
  O   O7        1.0  0.23179855  0.9959371399999999  0.43762581000000006  1.0000
  O   O8        1.0  0.652934  0.60863461  0.62524553  1.0000
  O   O9        1.0  0.152934  0.39136539  0.87475447  1.0000
  O   O10       1.0  0.347066  0.39136539  0.37475447  1.0000
  O   O11       1.0  0.8470660000000001  0.60863461  0.12524553  1.0000
  O   O12       1.0  0.57567162  0.7795768399999999  0.7662208  1.0000
  O   O13       1.0  0.07567162  0.22042315999999998  0.7337792  1.0000
  O   O14       1.0  0.42432838  0.22042316000000003  0.2337792  1.0000
