data_image0
_chemical_formula_structural       Tm6H18
_chemical_formula_sum              "Tm6 H18"
_cell_length_a       6.172247781797176
_cell_length_b       6.172249992100254
_cell_length_c       6.450235900011213
_cell_angle_alpha    90.00003454899587
_cell_angle_beta     90.00014024995691
_cell_angle_gamma    120.00008486058847

_space_group_name_H-M_alt    "P 1"
_space_group_IT_number       1

loop_
  _space_group_symop_operation_xyz
  'x, y, z'

loop_
  _atom_site_type_symbol
  _atom_site_label
  _atom_site_symmetry_multiplicity
  _atom_site_fract_x
  _atom_site_fract_y
  _atom_site_fract_z
  _atom_site_occupancy
  Tm  Tm1       1.0  0.33741167000000005  0.33741293000000006  0.74999982  1.0000
  Tm  Tm2       1.0  0.662589  1.4200000000808624e-06  0.7500002199999999  1.0000
  Tm  Tm3       1.0  2.0000000000584902e-07  0.66258951  0.7500001  1.0000
  Tm  Tm4       1.0  0.337411  0.99999858  0.24999978  1.0000
  Tm  Tm5       1.0  0.9999998  0.33741049  0.24999989999999997  1.0000
  Tm  Tm6       1.0  0.66258833  0.66258807  0.25000018  1.0000
  H   H1        1.0  0.6797198199999999  0.6471547799999999  0.59001136  1.0000
  H   H2        1.0  0.35284606  0.03256608  0.59001102  1.0000
  H   H3        1.0  0.9674357100000001  0.3202816800000001  0.59001107  1.0000
  H   H4        1.0  0.67972023  0.03256425000000003  0.09001148  1.0000
  H   H5        1.0  0.9674379900000001  0.6471577200000002  0.09001189999999999  1.0000
  H   H6        1.0  0.35284404  0.32027931  0.09001099  1.0000
  H   H7        1.0  0.32028018000000014  0.3528452200000001  0.40998863999999996  1.0000
  H   H8        1.0  0.64715494  0.96743392  0.40998897999999995  1.0000
  H   H9        1.0  0.03256428999999987  0.6797193199999999  0.4099889299999999  1.0000
  H   H10       1.0  0.32027976999999996  0.96743575  0.90998852  1.0000
  H   H11       1.0  0.032562010000000044  0.35284228000000006  0.9099881  1.0000
  H   H12       1.0  0.64715596  0.67972069  0.90998901  1.0000
  H   H13       1.0  0.99999981  5.000000000000001e-08  0.74999806  1.0000
  H   H14       1.0  1.8999999999999995e-07  0.99999995  0.25000194  1.0000
  H   H15       1.0  0.33333342  0.66666752  0.6878979599999999  1.0000
  H   H16       1.0  0.33333342  0.66666527  0.18789639  1.0000
  H   H17       1.0  0.6666665800000002  0.33333248000000015  0.31210204  1.0000
  H   H18       1.0  0.66666658  0.3333347300000001  0.8121036099999999  1.0000
