data_image0
_chemical_formula_structural       K2Ho4Cu6Se10
_chemical_formula_sum              "K2 Ho4 Cu6 Se10"
_cell_length_a       7.482296004850717
_cell_length_b       7.482296004850717
_cell_length_c       16.89656
_cell_angle_alpha    90.0
_cell_angle_beta     90.0
_cell_angle_gamma    148.19741974303375

_space_group_name_H-M_alt    "P 1"
_space_group_IT_number       1

loop_
  _space_group_symop_operation_xyz
  'x, y, z'

loop_
  _atom_site_type_symbol
  _atom_site_label
  _atom_site_symmetry_multiplicity
  _atom_site_fract_x
  _atom_site_fract_y
  _atom_site_fract_z
  _atom_site_occupancy
  K   K1        1.0  0.937602  0.062397999999999926  0.75  1.0000
  K   K2        1.0  0.06239800000000007  0.9376020000000002  0.25  1.0000
  Ho  Ho1       1.0  0.808048  0.19195200000000004  0.09307000000000001  1.0000
  Ho  Ho2       1.0  0.1919520000000001  0.8080480000000001  0.90693  1.0000
  Ho  Ho3       1.0  0.808048  0.19195200000000004  0.40693  1.0000
  Ho  Ho4       1.0  0.1919520000000001  0.8080480000000001  0.59307  1.0000
  Cu  Cu1       1.0  0.340584  0.659416  0.25  1.0000
  Cu  Cu2       1.0  0.659416  0.340584  0.75  1.0000
  Cu  Cu3       1.0  0.58389  0.4161099999999999  0.030649  1.0000
  Cu  Cu4       1.0  0.41611  0.58389  0.9693510000000001  1.0000
  Cu  Cu5       1.0  0.58389  0.4161099999999999  0.4693510000000001  1.0000
  Cu  Cu6       1.0  0.41611  0.58389  0.530649  1.0000
  Se  Se1       1.0  0.44119  0.55881  0.11916200000000002  1.0000
  Se  Se2       1.0  0.55881  0.44119  0.880838  1.0000
  Se  Se3       1.0  0.44119  0.55881  0.380838  1.0000
  Se  Se4       1.0  0.55881  0.44119  0.619162  1.0000
  Se  Se5       1.0  0.749125  0.25087499999999996  0.25  1.0000
  Se  Se6       1.0  0.250875  0.749125  0.75  1.0000
  Se  Se7       1.0  0.834037  0.165963  0.927695  1.0000
  Se  Se8       1.0  0.16596300000000005  0.8340370000000001  0.072305  1.0000
  Se  Se9       1.0  0.834037  0.165963  0.572305  1.0000
  Se  Se10      1.0  0.16596300000000005  0.8340370000000001  0.42769500000000005  1.0000
