data_image0
_chemical_formula_structural       Er2Si4Ni20
_chemical_formula_sum              "Er2 Si4 Ni20"
_cell_length_a       8.06681565
_cell_length_b       8.06681565
_cell_length_c       4.62600222
_cell_angle_alpha    90.0
_cell_angle_beta     90.0
_cell_angle_gamma    90.0

_space_group_name_H-M_alt    "P 1"
_space_group_IT_number       1

loop_
  _space_group_symop_operation_xyz
  'x, y, z'

loop_
  _atom_site_type_symbol
  _atom_site_label
  _atom_site_symmetry_multiplicity
  _atom_site_fract_x
  _atom_site_fract_y
  _atom_site_fract_z
  _atom_site_occupancy
  Er  Er1       1.0  0.5  0.0  0.7791141799999999  1.0000
  Er  Er2       1.0  0.0  0.5  0.22088582  1.0000
  Si  Si1       1.0  0.75  0.75  0.49999999999999994  1.0000
  Si  Si2       1.0  0.25  0.25  0.49999999999999994  1.0000
  Si  Si3       1.0  0.75  0.25  0.49999999999999994  1.0000
  Si  Si4       1.0  0.25  0.75  0.49999999999999994  1.0000
  Ni  Ni1       1.0  0.25  0.25  0.0  1.0000
  Ni  Ni2       1.0  0.25  0.75  0.0  1.0000
  Ni  Ni3       1.0  0.5  0.22290144  0.27063321999999995  1.0000
  Ni  Ni4       1.0  0.75  0.75  0.0  1.0000
  Ni  Ni5       1.0  0.75  0.25  0.0  1.0000
  Ni  Ni6       1.0  0.5  0.77709856  0.27063321999999995  1.0000
  Ni  Ni7       1.0  0.35251887  0.5  0.23918165999999996  1.0000
  Ni  Ni8       1.0  0.0  0.14748113  0.23918165999999996  1.0000
  Ni  Ni9       1.0  0.0  0.85251887  0.23918165999999996  1.0000
  Ni  Ni10      1.0  0.64748113  0.5  0.23918165999999996  1.0000
  Ni  Ni11      1.0  0.14748113  0.0  0.7608183399999999  1.0000
  Ni  Ni12      1.0  0.85251887  0.0  0.7608183399999999  1.0000
  Ni  Ni13      1.0  0.5  0.35251887  0.7608183399999999  1.0000
  Ni  Ni14      1.0  0.5  0.64748113  0.7608183399999999  1.0000
  Ni  Ni15      1.0  0.77709856  0.5  0.7293667799999999  1.0000
  Ni  Ni16      1.0  0.0  0.7229014400000001  0.7293667799999999  1.0000
  Ni  Ni17      1.0  0.0  0.27709856  0.7293667799999999  1.0000
  Ni  Ni18      1.0  0.22290144  0.5  0.7293667799999999  1.0000
  Ni  Ni19      1.0  0.7229014400000001  0.0  0.27063321999999995  1.0000
  Ni  Ni20      1.0  0.27709856  0.0  0.27063321999999995  1.0000
