data_image0
_chemical_formula_structural       Bi8O12
_chemical_formula_sum              "Bi8 O12"
_cell_length_a       7.916209
_cell_length_b       7.916209
_cell_length_c       5.592237
_cell_angle_alpha    90.0
_cell_angle_beta     90.0
_cell_angle_gamma    90.0

_space_group_name_H-M_alt    "P 1"
_space_group_IT_number       1

loop_
  _space_group_symop_operation_xyz
  'x, y, z'

loop_
  _atom_site_type_symbol
  _atom_site_label
  _atom_site_symmetry_multiplicity
  _atom_site_fract_x
  _atom_site_fract_y
  _atom_site_fract_z
  _atom_site_occupancy
  Bi  Bi1       1.0  0.249333  0.49258900000000005  0.249001  1.0000
  Bi  Bi2       1.0  0.5074110000000001  0.249333  0.7509990000000001  1.0000
  Bi  Bi3       1.0  0.7506670000000001  0.5074110000000001  0.249001  1.0000
  Bi  Bi4       1.0  0.749333  0.007411000000000001  0.249001  1.0000
  Bi  Bi5       1.0  0.25066700000000003  0.992589  0.249001  1.0000
  Bi  Bi6       1.0  0.007411000000000001  0.25066700000000003  0.7509990000000001  1.0000
  Bi  Bi7       1.0  0.992589  0.749333  0.7509990000000001  1.0000
  Bi  Bi8       1.0  0.49258900000000005  0.7506670000000001  0.7509990000000001  1.0000
  O   O1        1.0  0.251466  0.751466  0.0  1.0000
  O   O2        1.0  0.24471600000000002  0.255284  0.5  1.0000
  O   O3        1.0  0.7485340000000001  0.24853400000000003  0.0  1.0000
  O   O4        1.0  0.5  0.0  0.0  1.0000
  O   O5        1.0  0.755284  0.7447160000000002  0.5  1.0000
  O   O6        1.0  0.24853400000000003  0.251466  0.0  1.0000
  O   O7        1.0  0.0  0.0  0.5  1.0000
  O   O8        1.0  0.7447160000000002  0.24471600000000002  0.5  1.0000
  O   O9        1.0  0.255284  0.755284  0.5  1.0000
  O   O10       1.0  0.751466  0.7485340000000001  0.0  1.0000
  O   O11       1.0  0.0  0.5  0.0  1.0000
  O   O12       1.0  0.5  0.5  0.5  1.0000
