data_image0
_chemical_formula_structural       CuSb6S2O16
_chemical_formula_sum              "Cu1 Sb6 S2 O16"
_cell_length_a       5.636026
_cell_length_b       7.8131608709178
_cell_length_c       9.42774610140674
_cell_angle_alpha    96.82444944263614
_cell_angle_beta     93.39414065974539
_cell_angle_gamma    109.5880042569582

_space_group_name_H-M_alt    "P 1"
_space_group_IT_number       1

loop_
  _space_group_symop_operation_xyz
  'x, y, z'

loop_
  _atom_site_type_symbol
  _atom_site_label
  _atom_site_symmetry_multiplicity
  _atom_site_fract_x
  _atom_site_fract_y
  _atom_site_fract_z
  _atom_site_occupancy
  Cu  Cu1       1.0  0.0  0.5  0.5  1.0000
  Sb  Sb1       1.0  0.699223  0.518816  0.778568  1.0000
  Sb  Sb2       1.0  0.300777  0.481184  0.22143199999999996  1.0000
  Sb  Sb3       1.0  0.6492550000000001  0.8326670000000002  0.518016  1.0000
  Sb  Sb4       1.0  0.35074500000000003  0.16733300000000004  0.481984  1.0000
  Sb  Sb5       1.0  0.33395600000000003  0.854946  0.8006449999999999  1.0000
  Sb  Sb6       1.0  0.666044  0.145054  0.199355  1.0000
  S   S1        1.0  0.13289700000000002  0.21408900000000003  0.855856  1.0000
  S   S2        1.0  0.867103  0.785911  0.144144  1.0000
  O   O1        1.0  0.03191500000000007  0.6578080000000001  0.684407  1.0000
  O   O2        1.0  0.968085  0.34219200000000005  0.315593  1.0000
  O   O3        1.0  0.555795  0.702559  0.704131  1.0000
  O   O4        1.0  0.44420500000000007  0.297441  0.295869  1.0000
  O   O5        1.0  0.061437000000000005  0.020716999999999992  0.773878  1.0000
  O   O6        1.0  0.9385630000000001  0.979283  0.226122  1.0000
  O   O7        1.0  0.671065  0.373208  0.576498  1.0000
  O   O8        1.0  0.328935  0.626792  0.423502  1.0000
  O   O9        1.0  0.327115  0.23875100000000002  0.97683  1.0000
  O   O10       1.0  0.672885  0.761249  0.02317  1.0000
  O   O11       1.0  0.45514400000000005  0.974931  0.625984  1.0000
  O   O12       1.0  0.544856  0.025068999999999998  0.374016  1.0000
  O   O13       1.0  0.24836300000000006  0.34561600000000003  0.751045  1.0000
  O   O14       1.0  0.7516370000000002  0.6543840000000002  0.248955  1.0000
  O   O15       1.0  0.9041510000000001  0.24405700000000002  0.902557  1.0000
  O   O16       1.0  0.09584900000000002  0.755943  0.097443  1.0000
