data_image0
_chemical_formula_structural       Sb2H2O4F12
_chemical_formula_sum              "Sb2 H2 O4 F12"
_cell_length_a       5.174113
_cell_length_b       7.301534566896468
_cell_length_c       8.134955459169152
_cell_angle_alpha    90.9395314512041
_cell_angle_beta     97.22151606041648
_cell_angle_gamma    91.96796560956827

_space_group_name_H-M_alt    "P 1"
_space_group_IT_number       1

loop_
  _space_group_symop_operation_xyz
  'x, y, z'

loop_
  _atom_site_type_symbol
  _atom_site_label
  _atom_site_symmetry_multiplicity
  _atom_site_fract_x
  _atom_site_fract_y
  _atom_site_fract_z
  _atom_site_occupancy
  Sb  Sb1       1.0  0.539612  0.734475  0.772871  1.0000
  Sb  Sb2       1.0  0.46038799999999996  0.265525  0.227129  1.0000
  H   H1        1.0  0.15091399999999996  0.9164470000000001  0.146517  1.0000
  H   H2        1.0  0.849086  0.083553  0.853483  1.0000
  O   O1        1.0  0.010312000000000003  0.745511  0.22520000000000004  1.0000
  O   O2        1.0  0.081971  0.738203  0.374783  1.0000
  O   O3        1.0  0.918029  0.261797  0.625217  1.0000
  O   O4        1.0  0.989688  0.254489  0.7748  1.0000
  F   F1        1.0  0.150377  0.384504  0.14881  1.0000
  F   F2        1.0  0.28296599999999994  0.9121169999999998  0.722776  1.0000
  F   F3        1.0  0.224742  0.027956  0.101096  1.0000
  F   F4        1.0  0.349734  0.526687  0.6754630000000001  1.0000
  F   F5        1.0  0.309441  0.194648  0.418001  1.0000
  F   F6        1.0  0.436881  0.716952  0.988341  1.0000
  F   F7        1.0  0.563119  0.283048  0.011659000000000001  1.0000
  F   F8        1.0  0.6905589999999999  0.805352  0.581999  1.0000
  F   F9        1.0  0.650266  0.473313  0.324537  1.0000
  F   F10       1.0  0.775258  0.972044  0.898904  1.0000
  F   F11       1.0  0.717034  0.087883  0.277224  1.0000
  F   F12       1.0  0.8496229999999999  0.615496  0.85119  1.0000
