data_image0
_chemical_formula_structural       Na8Te4Se12
_chemical_formula_sum              "Na8 Te4 Se12"
_cell_length_a       5.958617696074006
_cell_length_b       8.767869369608176
_cell_length_c       12.60714745
_cell_angle_alpha    90.0
_cell_angle_beta     90.0
_cell_angle_gamma    93.66641633361851

_space_group_name_H-M_alt    "P 1"
_space_group_IT_number       1

loop_
  _space_group_symop_operation_xyz
  'x, y, z'

loop_
  _atom_site_type_symbol
  _atom_site_label
  _atom_site_symmetry_multiplicity
  _atom_site_fract_x
  _atom_site_fract_y
  _atom_site_fract_z
  _atom_site_occupancy
  Na  Na1       1.0  0.26355802  0.36699677  0.26210641  1.0000
  Na  Na2       1.0  0.73644198  0.13300323  0.76210641  1.0000
  Na  Na3       1.0  0.73644198  0.63300323  0.73789359  1.0000
  Na  Na4       1.0  0.26355802  0.8669967700000001  0.23789359000000002  1.0000
  Na  Na5       1.0  0.75427313  0.13604416  0.41667661000000006  1.0000
  Na  Na6       1.0  0.24572687  0.36395584000000003  0.91667661  1.0000
  Na  Na7       1.0  0.24572687  0.86395584  0.58332339  1.0000
  Na  Na8       1.0  0.75427313  0.63604416  0.08332339  1.0000
  Te  Te1       1.0  0.29777801  0.30935175  0.58888572  1.0000
  Te  Te2       1.0  0.70222199  0.19064825  0.08888572  1.0000
  Te  Te3       1.0  0.70222199  0.69064825  0.41111428  1.0000
  Te  Te4       1.0  0.29777801  0.8093517499999999  0.91111428  1.0000
  Se  Se1       1.0  0.71869253  0.36822051  0.5917925  1.0000
  Se  Se2       1.0  0.28130747  0.13177948999999997  0.0917925  1.0000
  Se  Se3       1.0  0.28130747  0.63177949  0.4082075  1.0000
  Se  Se4       1.0  0.71869253  0.86822051  0.9082075  1.0000
  Se  Se5       1.0  0.23610217999999997  0.12189831  0.74116399  1.0000
  Se  Se6       1.0  0.76389782  0.37810169  0.24116399  1.0000
  Se  Se7       1.0  0.76389782  0.87810169  0.25883601  1.0000
  Se  Se8       1.0  0.23610217999999997  0.62189831  0.75883601  1.0000
  Se  Se9       1.0  0.25225179  0.13567411999999998  0.43124475  1.0000
  Se  Se10      1.0  0.74774821  0.36432587999999994  0.93124475  1.0000
  Se  Se11      1.0  0.74774821  0.86432588  0.56875525  1.0000
  Se  Se12      1.0  0.25225179  0.63567412  0.06875525  1.0000
