data_image0
_chemical_formula_structural       MgZn2H12Br6O6
_chemical_formula_sum              "Mg1 Zn2 H12 Br6 O6"
_cell_length_a       8.495668359056866
_cell_length_b       8.495668359056866
_cell_length_c       8.495668359056866
_cell_angle_alpha    121.58349478165225
_cell_angle_beta     104.77856414832547
_cell_angle_gamma    102.77808202487655

_space_group_name_H-M_alt    "P 1"
_space_group_IT_number       1

loop_
  _space_group_symop_operation_xyz
  'x, y, z'

loop_
  _atom_site_type_symbol
  _atom_site_label
  _atom_site_symmetry_multiplicity
  _atom_site_fract_x
  _atom_site_fract_y
  _atom_site_fract_z
  _atom_site_occupancy
  Mg  Mg1       1.0  0.0  0.0  0.0  1.0000
  Zn  Zn1       1.0  0.34239499999999995  0.8423950000000001  0.5  1.0000
  Zn  Zn2       1.0  0.657605  0.15760499999999997  0.5  1.0000
  H   H1        1.0  0.10198900000000005  0.16324599999999997  0.412375  1.0000
  H   H2        1.0  0.24912899999999993  0.8367540000000001  0.938742  1.0000
  H   H3        1.0  0.7508709999999998  0.6896129999999999  0.5876249999999998  1.0000
  H   H4        1.0  0.8980109999999999  0.31038700000000014  0.06125800000000004  1.0000
  H   H5        1.0  0.8980109999999999  0.836754  0.5876249999999998  1.0000
  H   H6        1.0  0.750871  0.16324599999999995  0.061257999999999986  1.0000
  H   H7        1.0  0.249129  0.310387  0.412375  1.0000
  H   H8        1.0  0.10198900000000004  0.689613  0.938742  1.0000
  H   H9        1.0  0.826161  0.749622  0.07653900000000004  1.0000
  H   H10       1.0  0.32691599999999993  0.250378  0.07653899999999998  1.0000
  H   H11       1.0  0.673084  0.7496219999999999  0.923461  1.0000
  H   H12       1.0  0.17383900000000008  0.25037800000000004  0.9234610000000001  1.0000
  Br  Br1       1.0  0.5000000000000001  0.22327399999999994  0.723274  1.0000
  Br  Br2       1.0  0.4999999999999999  0.776726  0.276726  1.0000
  Br  Br3       1.0  0.021082999999999918  0.712529  0.30855499999999997  1.0000
  Br  Br4       1.0  0.596026  0.287471  0.308555  1.0000
  Br  Br5       1.0  0.403974  0.7125290000000001  0.691445  1.0000
  Br  Br6       1.0  0.9789170000000003  0.28747099999999987  0.6914449999999999  1.0000
  O   O1        1.0  0.14658999999999997  0.17594100000000004  0.32253100000000007  1.0000
  O   O2        1.0  0.14659000000000016  0.8240589999999998  0.9706489999999999  1.0000
  O   O3        1.0  0.8534099999999999  0.824059  0.6774689999999999  1.0000
  O   O4        1.0  0.8534099999999999  0.17594099999999985  0.02935099999999995  1.0000
  O   O5        1.0  0.803923  0.803923  3.828687478916858e-17  1.0000
  O   O6        1.0  0.19607700000000003  0.19607699999999997  0.0  1.0000
