data_image0
_chemical_formula_structural       Pb12Br4O12
_chemical_formula_sum              "Pb12 Br4 O12"
_cell_length_a       5.944496
_cell_length_b       7.105929
_cell_length_c       16.428558
_cell_angle_alpha    90.0
_cell_angle_beta     90.0
_cell_angle_gamma    90.0

_space_group_name_H-M_alt    "P 1"
_space_group_IT_number       1

loop_
  _space_group_symop_operation_xyz
  'x, y, z'

loop_
  _atom_site_type_symbol
  _atom_site_label
  _atom_site_symmetry_multiplicity
  _atom_site_fract_x
  _atom_site_fract_y
  _atom_site_fract_z
  _atom_site_occupancy
  Pb  Pb1       1.0  0.5  0.32480000000000003  0.179136  1.0000
  Pb  Pb2       1.0  0.5  0.6752000000000001  0.679136  1.0000
  Pb  Pb3       1.0  0.5  0.808147  0.11040299999999999  1.0000
  Pb  Pb4       1.0  0.5  0.19185300000000002  0.610403  1.0000
  Pb  Pb5       1.0  0.5  0.523252  0.43467599999999995  1.0000
  Pb  Pb6       1.0  0.5  0.47674800000000006  0.934676  1.0000
  Pb  Pb7       1.0  0.0  0.524848  0.079276  1.0000
  Pb  Pb8       1.0  0.0  0.475152  0.579276  1.0000
  Pb  Pb9       1.0  0.0  0.7090060000000001  0.2814769999999999  1.0000
  Pb  Pb10      1.0  0.0  0.29099400000000003  0.781477  1.0000
  Pb  Pb11      1.0  0.0  0.811609  0.9081289999999999  1.0000
  Pb  Pb12      1.0  0.0  0.188391  0.408129  1.0000
  Br  Br1       1.0  0.0  0.141895  0.106066  1.0000
  Br  Br2       1.0  0.0  0.858105  0.606066  1.0000
  Br  Br3       1.0  0.5  0.058055  0.8307189999999999  1.0000
  Br  Br4       1.0  0.5  0.9419450000000001  0.330719  1.0000
  O   O1        1.0  0.240688  0.309985  0.50833  1.0000
  O   O2        1.0  0.759312  0.309985  0.50833  1.0000
  O   O3        1.0  0.759312  0.690015  0.008329999999999999  1.0000
  O   O4        1.0  0.240688  0.690015  0.008329999999999999  1.0000
  O   O5        1.0  0.243434  0.5858080000000001  0.17584999999999998  1.0000
  O   O6        1.0  0.756566  0.5858080000000001  0.17584999999999998  1.0000
  O   O7        1.0  0.756566  0.41419200000000006  0.6758499999999998  1.0000
  O   O8        1.0  0.243434  0.41419200000000006  0.6758499999999998  1.0000
  O   O9        1.0  0.0  0.4825070000000001  0.369128  1.0000
  O   O10       1.0  0.0  0.517493  0.8691279999999999  1.0000
  O   O11       1.0  0.5  0.329308  0.047969  1.0000
  O   O12       1.0  0.5  0.670692  0.547969  1.0000
