data_image0
_chemical_formula_structural       Na8Sn12Au4
_chemical_formula_sum              "Na8 Sn12 Au4"
_cell_length_a       9.674378906603232
_cell_length_b       9.674392493022529
_cell_length_c       7.5495823500000085
_cell_angle_alpha    90.00000455064828
_cell_angle_beta     89.9999998155491
_cell_angle_gamma    120.00268167788822

_space_group_name_H-M_alt    "P 1"
_space_group_IT_number       1

loop_
  _space_group_symop_operation_xyz
  'x, y, z'

loop_
  _atom_site_type_symbol
  _atom_site_label
  _atom_site_symmetry_multiplicity
  _atom_site_fract_x
  _atom_site_fract_y
  _atom_site_fract_z
  _atom_site_occupancy
  Na  Na1       1.0  0.532526  0.06503475000000003  0.24999987999999998  1.0000
  Na  Na2       1.0  0.06503492  0.53252602  0.7499998599999999  1.0000
  Na  Na3       1.0  0.46748689  0.53251328  0.74999983  1.0000
  Na  Na4       1.0  0.53251319  0.46748694  0.25000019  1.0000
  Na  Na5       1.0  0.46747413000000015  0.9349652000000002  0.7500000499999999  1.0000
  Na  Na6       1.0  0.9349654500000001  0.4674741800000001  0.25  1.0000
  Na  Na7       1.0  0.99999599  3.820000000000001e-06  0.7500001799999999  1.0000
  Na  Na8       1.0  4.1900000000000005e-06  0.99999613  0.25000029  1.0000
  Sn  Sn1       1.0  0.1710662799999999  0.8289333199999999  0.05334815999999999  1.0000
  Sn  Sn2       1.0  0.8289337700000001  0.6578679000000001  0.55334837  1.0000
  Sn  Sn3       1.0  0.34213244  0.17106649  0.55334848  1.0000
  Sn  Sn4       1.0  0.8289336699999998  0.17106660999999992  0.94665144  1.0000
  Sn  Sn5       1.0  0.8289337200000002  0.6578680100000001  0.9466518099999999  1.0000
  Sn  Sn6       1.0  0.8289336  0.17106663999999996  0.55334851  1.0000
  Sn  Sn7       1.0  0.34213246  0.17106663  0.94665159  1.0000
  Sn  Sn8       1.0  0.6578675100000001  0.8289331800000002  0.053347929999999995  1.0000
  Sn  Sn9       1.0  0.65786727  0.8289333  0.44665196  1.0000
  Sn  Sn10      1.0  0.17106639000000004  0.34213226  0.44665196  1.0000
  Sn  Sn11      1.0  0.17106664000000002  0.82893337  0.44665190999999993  1.0000
  Sn  Sn12      1.0  0.17106644  0.34213222  0.05334799  1.0000
  Au  Au1       1.0  0.33333484  0.66666568  0.46272707999999996  1.0000
  Au  Au2       1.0  0.6666652100000001  0.33333416  0.5372722299999999  1.0000
  Au  Au3       1.0  0.66666531  0.33333434999999995  0.9627275799999999  1.0000
  Au  Au4       1.0  0.33333469  0.66666558  0.03727274  1.0000
