data_image0
_chemical_formula_structural       V8O14
_chemical_formula_sum              "V8 O14"
_cell_length_a       5.550582121701734
_cell_length_b       6.786413640792484
_cell_length_c       6.98693040473207
_cell_angle_alpha    64.3737399039066
_cell_angle_beta     70.29505848782975
_cell_angle_gamma    75.17998095895899

_space_group_name_H-M_alt    "P 1"
_space_group_IT_number       1

loop_
  _space_group_symop_operation_xyz
  'x, y, z'

loop_
  _atom_site_type_symbol
  _atom_site_label
  _atom_site_symmetry_multiplicity
  _atom_site_fract_x
  _atom_site_fract_y
  _atom_site_fract_z
  _atom_site_occupancy
  V   V1        1.0  0.18942649  0.09843253999999999  0.25562265  1.0000
  V   V2        1.0  0.7188815400000002  0.37314962  0.41340334999999995  1.0000
  V   V3        1.0  0.2811589  0.6268561899999999  0.5865571800000001  1.0000
  V   V4        1.0  0.28626384999999993  0.62441652  0.08475941000000006  1.0000
  V   V5        1.0  0.7136940499999999  0.37559668999999996  0.9152546500000001  1.0000
  V   V6        1.0  0.18494216000000002  0.09359052  0.7588249  1.0000
  V   V7        1.0  0.8150989400000002  0.9064218799999999  0.24115213000000008  1.0000
  V   V8        1.0  0.81055731  0.9015917699999998  0.7443768700000002  1.0000
  O   O1        1.0  0.79641386  0.05421549999999999  0.43476307000000003  1.0000
  O   O2        1.0  0.82626764  0.22413991999999994  0.70253556  1.0000
  O   O3        1.0  0.97506323  0.8279031499999999  0.9800118700000002  1.0000
  O   O4        1.0  0.08348560000000001  0.38796779  0.2575656700000001  1.0000
  O   O5        1.0  0.4727541600000001  0.8959446799999998  0.8621457800000002  1.0000
  O   O6        1.0  0.024925020000000006  0.17207285999999997  0.02000726  1.0000
  O   O7        1.0  0.4012299  0.53280418  0.8387886499999999  1.0000
  O   O8        1.0  0.17373975000000003  0.7758278399999997  0.2974428900000001  1.0000
  O   O9        1.0  0.35382632  0.3325426799999999  0.5915135100000001  1.0000
  O   O10       1.0  0.91653848  0.6120104199999999  0.7424219700000003  1.0000
  O   O11       1.0  0.64614773  0.6674736499999999  0.40848407000000003  1.0000
  O   O12       1.0  0.20359329000000004  0.94576731  0.56523646  1.0000
  O   O13       1.0  0.52729429  0.10398697999999999  0.13791320999999998  1.0000
  O   O14       1.0  0.59869552  0.46728934  0.16121789  1.0000
