data_image0
_chemical_formula_structural       Sc12Si12Ru4
_chemical_formula_sum              "Sc12 Si12 Ru4"
_cell_length_a       3.998484
_cell_length_b       10.309374
_cell_length_c       11.728488
_cell_angle_alpha    90.0
_cell_angle_beta     90.0
_cell_angle_gamma    90.0

_space_group_name_H-M_alt    "P 1"
_space_group_IT_number       1

loop_
  _space_group_symop_operation_xyz
  'x, y, z'

loop_
  _atom_site_type_symbol
  _atom_site_label
  _atom_site_symmetry_multiplicity
  _atom_site_fract_x
  _atom_site_fract_y
  _atom_site_fract_z
  _atom_site_occupancy
  Sc  Sc1       1.0  0.25  0.876859  0.018733  1.0000
  Sc  Sc2       1.0  0.25  0.623141  0.518733  1.0000
  Sc  Sc3       1.0  0.75  0.123141  0.981267  1.0000
  Sc  Sc4       1.0  0.75  0.37685900000000006  0.481267  1.0000
  Sc  Sc5       1.0  0.25  0.922236  0.60437  1.0000
  Sc  Sc6       1.0  0.25  0.577764  0.10436999999999999  1.0000
  Sc  Sc7       1.0  0.75  0.077764  0.3956299999999999  1.0000
  Sc  Sc8       1.0  0.75  0.42223600000000006  0.89563  1.0000
  Sc  Sc9       1.0  0.25  0.660943  0.798033  1.0000
  Sc  Sc10      1.0  0.25  0.8390570000000002  0.298033  1.0000
  Sc  Sc11      1.0  0.75  0.339057  0.20196699999999998  1.0000
  Sc  Sc12      1.0  0.75  0.160943  0.701967  1.0000
  Si  Si1       1.0  0.25  0.015241  0.8223  1.0000
  Si  Si2       1.0  0.25  0.48475900000000005  0.3223  1.0000
  Si  Si3       1.0  0.75  0.984759  0.1777  1.0000
  Si  Si4       1.0  0.75  0.515241  0.6777  1.0000
  Si  Si5       1.0  0.25  0.252375  0.842736  1.0000
  Si  Si6       1.0  0.25  0.247625  0.342736  1.0000
  Si  Si7       1.0  0.75  0.747625  0.157264  1.0000
  Si  Si8       1.0  0.75  0.752375  0.657264  1.0000
  Si  Si9       1.0  0.25  0.193903  0.545447  1.0000
  Si  Si10      1.0  0.25  0.306097  0.045446999999999994  1.0000
  Si  Si11      1.0  0.75  0.806097  0.454553  1.0000
  Si  Si12      1.0  0.75  0.693903  0.954553  1.0000
  Ru  Ru1       1.0  0.25  0.390751  0.677491  1.0000
  Ru  Ru2       1.0  0.25  0.10924900000000001  0.17749099999999998  1.0000
  Ru  Ru3       1.0  0.75  0.609249  0.322509  1.0000
  Ru  Ru4       1.0  0.75  0.8907510000000001  0.822509  1.0000
