data_image0
_chemical_formula_structural       CaTi4Cu3O12
_chemical_formula_sum              "Ca1 Ti4 Cu3 O12"
_cell_length_a       6.69414254439469
_cell_length_b       6.69414254439469
_cell_length_c       6.69414254439469
_cell_angle_alpha    109.47122063449069
_cell_angle_beta     109.47122063449069
_cell_angle_gamma    109.47122063449069

_space_group_name_H-M_alt    "P 1"
_space_group_IT_number       1

loop_
  _space_group_symop_operation_xyz
  'x, y, z'

loop_
  _atom_site_type_symbol
  _atom_site_label
  _atom_site_symmetry_multiplicity
  _atom_site_fract_x
  _atom_site_fract_y
  _atom_site_fract_z
  _atom_site_occupancy
  Ca  Ca1       1.0  0.0  0.0  0.0  1.0000
  Ti  Ti1       1.0  0.0  0.5  0.0  1.0000
  Ti  Ti2       1.0  0.5  0.5  0.5  1.0000
  Ti  Ti3       1.0  0.0  0.0  0.5  1.0000
  Ti  Ti4       1.0  0.5  0.0  0.0  1.0000
  Cu  Cu1       1.0  0.5  0.5  0.0  1.0000
  Cu  Cu2       1.0  0.0  0.5  0.5  1.0000
  Cu  Cu3       1.0  0.5  0.0  0.5  1.0000
  O   O1        1.0  0.24679300000000015  0.7532070000000001  0.0  1.0000
  O   O2        1.0  0.24679300000000018  0.0  0.7532070000000001  1.0000
  O   O3        1.0  1.4747774964326674e-16  0.24679300000000004  0.7532070000000001  1.0000
  O   O4        1.0  0.5064140000000003  0.7532070000000001  0.7532070000000001  1.0000
  O   O5        1.0  0.246793  0.493586  0.246793  1.0000
  O   O6        1.0  0.7532070000000001  0.0  0.246793  1.0000
  O   O7        1.0  0.7532070000000001  0.5064140000000001  0.7532069999999998  1.0000
  O   O8        1.0  7.844874995163586e-17  0.7532070000000001  0.246793  1.0000
  O   O9        1.0  0.246793  0.246793  0.493586  1.0000
  O   O10       1.0  0.493586  0.246793  0.246793  1.0000
  O   O11       1.0  0.7532070000000002  0.7532070000000001  0.506414  1.0000
  O   O12       1.0  0.7532070000000001  0.246793  0.0  1.0000
