data_image0
_chemical_formula_structural       Rb4Eu4As4S12
_chemical_formula_sum              "Rb4 Eu4 As4 S12"
_cell_length_a       8.361898
_cell_length_b       8.839751
_cell_length_c       9.517142549555775
_cell_angle_alpha    74.65843027010463
_cell_angle_beta     90.0
_cell_angle_gamma    90.0

_space_group_name_H-M_alt    "P 1"
_space_group_IT_number       1

loop_
  _space_group_symop_operation_xyz
  'x, y, z'

loop_
  _atom_site_type_symbol
  _atom_site_label
  _atom_site_symmetry_multiplicity
  _atom_site_fract_x
  _atom_site_fract_y
  _atom_site_fract_z
  _atom_site_occupancy
  Rb  Rb1       1.0  0.067663  0.7291549999999999  0.911642  1.0000
  Rb  Rb2       1.0  0.567663  0.770845  0.088358  1.0000
  Rb  Rb3       1.0  0.4323370000000001  0.22915499999999994  0.911642  1.0000
  Rb  Rb4       1.0  0.932337  0.270845  0.088358  1.0000
  Eu  Eu1       1.0  0.283515  0.02846799999999999  0.43787100000000007  1.0000
  Eu  Eu2       1.0  0.21648500000000004  0.528468  0.43787100000000007  1.0000
  Eu  Eu3       1.0  0.783515  0.47153199999999995  0.562129  1.0000
  Eu  Eu4       1.0  0.716485  0.9715319999999998  0.562129  1.0000
  As  As1       1.0  0.952287  0.85153  0.27339  1.0000
  As  As2       1.0  0.047713  0.14846999999999996  0.72661  1.0000
  As  As3       1.0  0.547713  0.35153  0.27339  1.0000
  As  As4       1.0  0.452287  0.64847  0.72661  1.0000
  S   S1        1.0  0.5102390000000001  0.719025  0.479972  1.0000
  S   S2        1.0  0.586329  0.102445  0.255657  1.0000
  S   S3        1.0  0.48976099999999995  0.280975  0.520028  1.0000
  S   S4        1.0  0.802538  0.07532899999999995  0.8220240000000001  1.0000
  S   S5        1.0  0.6974620000000001  0.575329  0.8220240000000001  1.0000
  S   S6        1.0  0.010239  0.7809750000000001  0.520028  1.0000
  S   S7        1.0  0.302538  0.4246710000000001  0.177976  1.0000
  S   S8        1.0  0.9897610000000001  0.21902499999999997  0.479972  1.0000
  S   S9        1.0  0.08632900000000002  0.39755500000000005  0.744343  1.0000
  S   S10       1.0  0.197462  0.924671  0.177976  1.0000
  S   S11       1.0  0.413671  0.8975550000000001  0.744343  1.0000
  S   S12       1.0  0.913671  0.602445  0.255657  1.0000
