data_image0
_chemical_formula_structural       Na4C8N4O12
_chemical_formula_sum              "Na4 C8 N4 O12"
_cell_length_a       5.423166
_cell_length_b       3.624827
_cell_length_c       20.275782753631116
_cell_angle_alpha    88.79220736031418
_cell_angle_beta     90.0
_cell_angle_gamma    90.0

_space_group_name_H-M_alt    "P 1"
_space_group_IT_number       1

loop_
  _space_group_symop_operation_xyz
  'x, y, z'

loop_
  _atom_site_type_symbol
  _atom_site_label
  _atom_site_symmetry_multiplicity
  _atom_site_fract_x
  _atom_site_fract_y
  _atom_site_fract_z
  _atom_site_occupancy
  Na  Na1       1.0  0.663636  0.524041  0.8103  1.0000
  Na  Na2       1.0  0.163636  0.975959  0.6897  1.0000
  Na  Na3       1.0  0.336364  0.47595899999999997  0.1897  1.0000
  Na  Na4       1.0  0.836364  0.024041  0.3103  1.0000
  C   C1        1.0  0.584658  0.24699799999999994  0.5898050000000001  1.0000
  C   C2        1.0  0.084658  0.253002  0.910195  1.0000
  C   C3        1.0  0.415342  0.753002  0.410195  1.0000
  C   C4        1.0  0.9153419999999999  0.7469979999999999  0.089805  1.0000
  C   C5        1.0  0.655394  0.423468  0.6579840000000001  1.0000
  C   C6        1.0  0.155394  0.076532  0.842016  1.0000
  C   C7        1.0  0.344606  0.5765319999999999  0.342016  1.0000
  C   C8        1.0  0.844606  0.923468  0.157984  1.0000
  N   N1        1.0  0.7581180000000001  0.24981900000000004  0.542976  1.0000
  N   N2        1.0  0.258118  0.25018099999999993  0.9570240000000001  1.0000
  N   N3        1.0  0.241882  0.750181  0.457024  1.0000
  N   N4        1.0  0.7418819999999999  0.7498189999999999  0.042976  1.0000
  O   O1        1.0  0.37484700000000004  0.10617799999999998  0.582827  1.0000
  O   O2        1.0  0.874847  0.393822  0.917173  1.0000
  O   O3        1.0  0.625153  0.8938219999999999  0.41717300000000007  1.0000
  O   O4        1.0  0.125153  0.606178  0.082827  1.0000
  O   O5        1.0  0.879282  0.5022459999999999  0.6660200000000001  1.0000
  O   O6        1.0  0.379282  0.9977539999999999  0.8339800000000002  1.0000
  O   O7        1.0  0.120718  0.497754  0.33398  1.0000
  O   O8        1.0  0.620718  0.0022460000000000015  0.16602  1.0000
  O   O9        1.0  0.480676  0.4591669999999999  0.698527  1.0000
  O   O10       1.0  0.980676  0.04083299999999999  0.8014730000000001  1.0000
  O   O11       1.0  0.519324  0.5408329999999999  0.301473  1.0000
  O   O12       1.0  0.019324  0.959167  0.198527  1.0000
