data_image0
_chemical_formula_structural       Y4B16Mo4
_chemical_formula_sum              "Y4 B16 Mo4"
_cell_length_a       3.62331518
_cell_length_b       6.02756528
_cell_length_c       11.64192282
_cell_angle_alpha    90.0
_cell_angle_beta     90.0
_cell_angle_gamma    90.0

_space_group_name_H-M_alt    "P 1"
_space_group_IT_number       1

loop_
  _space_group_symop_operation_xyz
  'x, y, z'

loop_
  _atom_site_type_symbol
  _atom_site_label
  _atom_site_symmetry_multiplicity
  _atom_site_fract_x
  _atom_site_fract_y
  _atom_site_fract_z
  _atom_site_occupancy
  Y   Y1        1.0  0.0  0.12734584  0.14962918  1.0000
  Y   Y2        1.0  0.0  0.8726541600000001  0.8503708200000001  1.0000
  Y   Y3        1.0  0.0  0.62734584  0.35037082  1.0000
  Y   Y4        1.0  0.0  0.37265416  0.64962918  1.0000
  B   B1        1.0  0.49999999999999994  0.02366453  0.69323952  1.0000
  B   B2        1.0  0.49999999999999994  0.97633547  0.30676048000000006  1.0000
  B   B3        1.0  0.49999999999999994  0.52366453  0.80676048  1.0000
  B   B4        1.0  0.49999999999999994  0.47633547  0.19323952  1.0000
  B   B5        1.0  0.49999999999999994  0.11370029  0.5473491400000001  1.0000
  B   B6        1.0  0.49999999999999994  0.88629971  0.45265086  1.0000
  B   B7        1.0  0.49999999999999994  0.61370029  0.95265086  1.0000
  B   B8        1.0  0.49999999999999994  0.38629971  0.04734914  1.0000
  B   B9        1.0  0.49999999999999994  0.28625575  0.31413547  1.0000
  B   B10       1.0  0.49999999999999994  0.71374425  0.6858645300000001  1.0000
  B   B11       1.0  0.49999999999999994  0.78625575  0.18586453  1.0000
  B   B12       1.0  0.49999999999999994  0.21374425  0.8141354700000001  1.0000
  B   B13       1.0  0.49999999999999994  0.36615963000000007  0.4681075900000001  1.0000
  B   B14       1.0  0.49999999999999994  0.63384037  0.53189241  1.0000
  B   B15       1.0  0.49999999999999994  0.86615963  0.03189241  1.0000
  B   B16       1.0  0.49999999999999994  0.13384037  0.96810759  1.0000
  Mo  Mo1       1.0  0.0  0.12876385  0.41699664  1.0000
  Mo  Mo2       1.0  0.0  0.87123615  0.58300336  1.0000
  Mo  Mo3       1.0  0.0  0.62876385  0.08300336  1.0000
  Mo  Mo4       1.0  0.0  0.37123615  0.9169966400000001  1.0000
