data_image0
_chemical_formula_structural       La6V2H6O16
_chemical_formula_sum              "La6 V2 H6 O16"
_cell_length_a       5.745349390894431
_cell_length_b       6.409137202346351
_cell_length_c       10.79754700015272
_cell_angle_alpha    89.99964205444651
_cell_angle_beta     89.99961639851003
_cell_angle_gamma    104.42233848517645

_space_group_name_H-M_alt    "P 1"
_space_group_IT_number       1

loop_
  _space_group_symop_operation_xyz
  'x, y, z'

loop_
  _atom_site_type_symbol
  _atom_site_label
  _atom_site_symmetry_multiplicity
  _atom_site_fract_x
  _atom_site_fract_y
  _atom_site_fract_z
  _atom_site_occupancy
  La  La1       1.0  0.7753  0.8013929999999999  0.7500020000000001  1.0000
  La  La2       1.0  0.22476899999999997  0.198617  0.250006  1.0000
  La  La3       1.0  0.688138  0.302914  0.542381  1.0000
  La  La4       1.0  0.3118619999999999  0.6970929999999999  0.042274000000000006  1.0000
  La  La5       1.0  0.311878  0.697088  0.4577220000000001  1.0000
  La  La6       1.0  0.688117  0.302907  0.957618  1.0000
  V   V1        1.0  0.8082299999999999  0.5300899999999998  0.25000000000000006  1.0000
  V   V2        1.0  0.191726  0.46986999999999995  0.75  1.0000
  H   H1        1.0  0.37518399999999996  0.09388999999999999  0.749994  1.0000
  H   H2        1.0  0.624753  0.9060829999999997  0.250001  1.0000
  H   H3        1.0  0.843708  0.9020209999999997  0.46043400000000007  1.0000
  H   H4        1.0  0.156243  0.09802299999999999  0.960404  1.0000
  H   H5        1.0  0.156279  0.09802699999999998  0.539624  1.0000
  H   H6        1.0  0.843675  0.902013  0.039591  1.0000
  O   O1        1.0  0.06369  0.19285099999999997  0.7499370000000001  1.0000
  O   O2        1.0  0.936346  0.8071429999999998  0.24994500000000003  1.0000
  O   O3        1.0  0.546676  0.09615199999999999  0.750008  1.0000
  O   O4        1.0  0.453261  0.9038319999999999  0.250004  1.0000
  O   O5        1.0  0.008819000000000002  0.5938019999999999  0.627625  1.0000
  O   O6        1.0  0.9911979999999999  0.40622399999999986  0.12758000000000003  1.0000
  O   O7        1.0  0.9911739999999999  0.40624599999999994  0.372426  1.0000
  O   O8        1.0  0.008854  0.5937799999999999  0.8724030000000002  1.0000
  O   O9        1.0  0.45852599999999993  0.5414479999999999  0.6320460000000001  1.0000
  O   O10       1.0  0.541523  0.45852  0.132037  1.0000
  O   O11       1.0  0.541575  0.458522  0.3679680000000001  1.0000
  O   O12       1.0  0.458475  0.541462  0.8679740000000001  1.0000
  O   O13       1.0  0.7337079999999999  0.932446  0.5227240000000001  1.0000
  O   O14       1.0  0.266301  0.06755  0.022635  1.0000
  O   O15       1.0  0.266284  0.067541  0.47736200000000006  1.0000
  O   O16       1.0  0.733728  0.9324509999999997  0.977274  1.0000
