data_image0
_chemical_formula_structural       Y6Cu2Sn2S14
_chemical_formula_sum              "Y6 Cu2 Sn2 S14"
_cell_length_a       9.768779442295797
_cell_length_b       9.768779442295797
_cell_length_c       6.28132
_cell_angle_alpha    90.0
_cell_angle_beta     90.0
_cell_angle_gamma    119.99999622292492

_space_group_name_H-M_alt    "P 1"
_space_group_IT_number       1

loop_
  _space_group_symop_operation_xyz
  'x, y, z'

loop_
  _atom_site_type_symbol
  _atom_site_label
  _atom_site_symmetry_multiplicity
  _atom_site_fract_x
  _atom_site_fract_y
  _atom_site_fract_z
  _atom_site_occupancy
  Y   Y1        1.0  0.208625  0.359709  0.873848  1.0000
  Y   Y2        1.0  0.35970899999999995  0.15108299999999997  0.373848  1.0000
  Y   Y3        1.0  0.640291  0.848917  0.873848  1.0000
  Y   Y4        1.0  0.791375  0.640291  0.373848  1.0000
  Y   Y5        1.0  0.848917  0.20862500000000003  0.373848  1.0000
  Y   Y6        1.0  0.15108299999999997  0.791375  0.873848  1.0000
  Cu  Cu1       1.0  0.0  0.0  0.989838  1.0000
  Cu  Cu2       1.0  0.0  0.0  0.489838  1.0000
  Sn  Sn1       1.0  0.333333  0.666667  0.308788  1.0000
  Sn  Sn2       1.0  0.6666669999999999  0.33333299999999993  0.808788  1.0000
  S   S1        1.0  0.6666669999999999  0.33333299999999993  0.191863  1.0000
  S   S2        1.0  0.333333  0.666667  0.691863  1.0000
  S   S3        1.0  0.480064  0.562349  0.126665  1.0000
  S   S4        1.0  0.917715  0.480064  0.626665  1.0000
  S   S5        1.0  0.562349  0.08228499999999997  0.626665  1.0000
  S   S6        1.0  0.43765100000000007  0.917715  0.126665  1.0000
  S   S7        1.0  0.08228500000000001  0.519936  0.126665  1.0000
  S   S8        1.0  0.519936  0.43765099999999996  0.626665  1.0000
  S   S9        1.0  0.738084  0.884308  0.456057  1.0000
  S   S10       1.0  0.8537759999999999  0.7380839999999999  0.956057  1.0000
  S   S11       1.0  0.261916  0.11569199999999998  0.956057  1.0000
  S   S12       1.0  0.14622399999999994  0.2619159999999999  0.456057  1.0000
  S   S13       1.0  0.11569200000000006  0.8537760000000001  0.456057  1.0000
  S   S14       1.0  0.884308  0.14622400000000002  0.956057  1.0000
