data_image0
_chemical_formula_structural       Cs18Al2O8
_chemical_formula_sum              "Cs18 Al2 O8"
_cell_length_a       12.717382492019137
_cell_length_b       12.717230342193812
_cell_length_c       12.71721984842632
_cell_angle_alpha    103.84090331633902
_cell_angle_beta     103.84144859605529
_cell_angle_gamma    121.43521888319952

_space_group_name_H-M_alt    "P 1"
_space_group_IT_number       1

loop_
  _space_group_symop_operation_xyz
  'x, y, z'

loop_
  _atom_site_type_symbol
  _atom_site_label
  _atom_site_symmetry_multiplicity
  _atom_site_fract_x
  _atom_site_fract_y
  _atom_site_fract_z
  _atom_site_occupancy
  Cs  Cs1       1.0  0.58025685  0.08025651999999993  0.6605104499999999  1.0000
  Cs  Cs2       1.0  0.41974248  0.9197441900000001  0.33948949  1.0000
  Cs  Cs3       1.0  0.08025397999999997  0.4197442899999999  0.5000004099999998  1.0000
  Cs  Cs4       1.0  0.9197459599999998  0.5802559799999999  0.4999997299999999  1.0000
  Cs  Cs5       1.0  1.1e-07  0.99999968  6.5e-07  1.0000
  Cs  Cs6       1.0  0.5000002900000001  0.4999995100000001  4.399999999779951e-07  1.0000
  Cs  Cs7       1.0  0.52692991  0.25000024  0.27692782000000005  1.0000
  Cs  Cs8       1.0  0.9730643699999999  0.25000203  0.72306373  1.0000
  Cs  Cs9       1.0  0.24999910000000009  0.97306429  0.7230670099999998  1.0000
  Cs  Cs10      1.0  0.24999726  0.5269315  0.27693181999999994  1.0000
  Cs  Cs11      1.0  0.4730694099999998  0.7499998699999998  0.7230720999999999  1.0000
  Cs  Cs12      1.0  0.026934790000000004  0.74999808  0.27693576  1.0000
  Cs  Cs13      1.0  0.75000088  0.02693590000000002  0.27693298  1.0000
  Cs  Cs14      1.0  0.7500016399999998  0.4730679899999999  0.7230672999999999  1.0000
  Cs  Cs15      1.0  0.15957430000000003  0.6595741800000001  0.81915041  1.0000
  Cs  Cs16      1.0  0.8404257299999999  0.34042623  0.18084955999999988  1.0000
  Cs  Cs17      1.0  0.6595746600000001  0.8404256600000001  0.49999976999999995  1.0000
  Cs  Cs18      1.0  0.3404269200000001  0.15957642999999996  0.5000007899999999  1.0000
  Al  Al1       1.0  0.24997935000000004  0.74997878  0.49999559999999993  1.0000
  Al  Al2       1.0  0.75002008  0.25002023  0.50000463  1.0000
  O   O1        1.0  0.22967183  0.7296638399999998  0.6308997199999999  1.0000
  O   O2        1.0  0.09877709999999999  0.59877239  0.36911496  1.0000
  O   O3        1.0  0.4012485800000001  0.77034378  0.5000057699999999  1.0000
  O   O4        1.0  0.27035413999999997  0.9012445399999999  0.5000024299999999  1.0000
  O   O5        1.0  0.7703291700000001  0.27033692  0.36910026  1.0000
  O   O6        1.0  0.9012240699999999  0.40122799  0.63088577  1.0000
  O   O7        1.0  0.7296459399999998  0.09875470999999982  0.4999969599999998  1.0000
  O   O8        1.0  0.5987511  0.22965422999999993  0.49999367  1.0000
