data_image0
_chemical_formula_structural       Nd2CuTe2S2O14
_chemical_formula_sum              "Nd2 Cu1 Te2 S2 O14"
_cell_length_a       5.220133008046878
_cell_length_b       8.005770294122028
_cell_length_c       8.298866376913036
_cell_angle_alpha    61.81426914998252
_cell_angle_beta     74.14006931246452
_cell_angle_gamma    85.34413043745062

_space_group_name_H-M_alt    "P 1"
_space_group_IT_number       1

loop_
  _space_group_symop_operation_xyz
  'x, y, z'

loop_
  _atom_site_type_symbol
  _atom_site_label
  _atom_site_symmetry_multiplicity
  _atom_site_fract_x
  _atom_site_fract_y
  _atom_site_fract_z
  _atom_site_occupancy
  Nd  Nd1       1.0  0.93349242  0.7505142999999999  0.98108266  1.0000
  Nd  Nd2       1.0  0.06650758  0.24948569999999998  0.01891734000000002  1.0000
  Cu  Cu1       1.0  0.0  0.0  0.5  1.0000
  Te  Te1       1.0  0.4945877  0.73335585  0.64550735  1.0000
  Te  Te2       1.0  0.5054123  0.26664415  0.3544926500000001  1.0000
  S   S1        1.0  0.25587085  0.74432792  0.25791212  1.0000
  S   S2        1.0  0.74412915  0.25567207999999997  0.74208788  1.0000
  O   O1        1.0  0.1559729  0.58329589  0.24717445  1.0000
  O   O2        1.0  0.8440271  0.41670410999999996  0.75282555  1.0000
  O   O3        1.0  0.13452948999999997  0.7442820799999998  0.43788903  1.0000
  O   O4        1.0  0.86547051  0.25571792  0.5621109700000001  1.0000
  O   O5        1.0  0.54711159  0.7424273499999998  0.2241805400000001  1.0000
  O   O6        1.0  0.45288841  0.25757265  0.7758194600000001  1.0000
  O   O7        1.0  0.17986118  0.9160692899999998  0.0997468700000001  1.0000
  O   O8        1.0  0.8201388200000002  0.08393070999999999  0.9002531300000001  1.0000
  O   O9        1.0  0.26600013  0.56326344  0.88068065  1.0000
  O   O10       1.0  0.73399987  0.43673655999999994  0.11931935000000009  1.0000
  O   O11       1.0  0.72969254  0.8149533200000001  0.73466088  1.0000
  O   O12       1.0  0.27030746  0.18504668  0.26533912  1.0000
  O   O13       1.0  0.25650277  0.92864967  0.6495291599999999  1.0000
  O   O14       1.0  0.74349723  0.07135033  0.35047084  1.0000
