data_image0
_chemical_formula_structural       Ca4Si10N16
_chemical_formula_sum              "Ca4 Si10 N16"
_cell_length_a       7.703726441010927
_cell_length_b       7.703726441010927
_cell_length_c       9.680726622381268
_cell_angle_alpha    69.56208437640544
_cell_angle_beta     69.56208437640544
_cell_angle_gamma    42.65308130146383

_space_group_name_H-M_alt    "P 1"
_space_group_IT_number       1

loop_
  _space_group_symop_operation_xyz
  'x, y, z'

loop_
  _atom_site_type_symbol
  _atom_site_label
  _atom_site_symmetry_multiplicity
  _atom_site_fract_x
  _atom_site_fract_y
  _atom_site_fract_z
  _atom_site_occupancy
  Ca  Ca1       1.0  0.35654722000000005  0.86404731  0.30128750000000004  1.0000
  Ca  Ca2       1.0  0.8640473100000001  0.3565472199999999  0.8012875  1.0000
  Ca  Ca3       1.0  0.7642378299999999  0.23628063999999996  0.49840885  1.0000
  Ca  Ca4       1.0  0.23628064000000007  0.7642378299999999  0.9984088500000002  1.0000
  Si  Si1       1.0  0.85767676  0.85276183  0.37391984000000006  1.0000
  Si  Si2       1.0  0.8527618299999998  0.8576767599999999  0.8739198400000001  1.0000
  Si  Si3       1.0  0.5705678400000002  0.15420620999999998  0.13195468  1.0000
  Si  Si4       1.0  0.15420621000000004  0.57056784  0.6319546800000001  1.0000
  Si  Si5       1.0  0.25097891000000006  0.25796216999999994  0.43692644  1.0000
  Si  Si6       1.0  0.25796217  0.25097891  0.93692644  1.0000
  Si  Si7       1.0  0.9657844900000001  0.5457428599999999  0.18190912000000004  1.0000
  Si  Si8       1.0  0.54574286  0.96578449  0.68190912  1.0000
  Si  Si9       1.0  0.86396813  0.2513168599999999  0.1468852  1.0000
  Si  Si10      1.0  0.2513168600000001  0.8639681299999998  0.6468851999999999  1.0000
  N   N1        1.0  0.27890283000000005  0.31301983999999994  0.08372990999999999  1.0000
  N   N2        1.0  0.31301983999999994  0.27890283  0.58372991  1.0000
  N   N3        1.0  0.78863342  0.4738305499999999  0.22676946000000003  1.0000
  N   N4        1.0  0.4738305500000001  0.7886334200000001  0.72676946  1.0000
  N   N5        1.0  0.8476817500000003  0.81905439  0.56513041  1.0000
  N   N6        1.0  0.8190543899999999  0.84768175  0.06513041  1.0000
  N   N7        1.0  0.97771948  0.98338073  0.28216273  1.0000
  N   N8        1.0  0.9833807299999999  0.9777194799999999  0.7821627300000001  1.0000
  N   N9        1.0  0.55078265  0.05562958  0.32431725  1.0000
  N   N10       1.0  0.05562957999999994  0.5507826500000002  0.82431725  1.0000
  N   N11       1.0  0.03732652999999995  0.55337352  0.33020691  1.0000
  N   N12       1.0  0.5533735199999998  0.037326530000000024  0.83020691  1.0000
  N   N13       1.0  0.13846845999999996  0.11966793  0.50391991  1.0000
  N   N14       1.0  0.11966793000000002  0.13846846  0.00391991  1.0000
  N   N15       1.0  0.34631878000000005  0.6269295  0.57057178  1.0000
  N   N16       1.0  0.6269295  0.34631877999999994  0.07057178  1.0000
