data_image0
_chemical_formula_structural       Sn4P4S12
_chemical_formula_sum              "Sn4 P4 S12"
_cell_length_a       7.57141576
_cell_length_b       6.596566975487068
_cell_length_c       11.859499654632444
_cell_angle_alpha    56.10713322711195
_cell_angle_beta     90.0
_cell_angle_gamma    90.0

_space_group_name_H-M_alt    "P 1"
_space_group_IT_number       1

loop_
  _space_group_symop_operation_xyz
  'x, y, z'

loop_
  _atom_site_type_symbol
  _atom_site_label
  _atom_site_symmetry_multiplicity
  _atom_site_fract_x
  _atom_site_fract_y
  _atom_site_fract_z
  _atom_site_occupancy
  Sn  Sn1       1.0  0.13618921  0.7446821299999999  0.55745666  1.0000
  Sn  Sn2       1.0  0.86381079  0.7446821299999999  0.05745666  1.0000
  Sn  Sn3       1.0  0.39582960000000006  0.20372868999999996  0.0404922  1.0000
  Sn  Sn4       1.0  0.6041704  0.20372868999999996  0.5404922  1.0000
  P   P1        1.0  0.64450796  0.87592171  0.31140675  1.0000
  P   P2        1.0  0.35549204  0.8759217100000001  0.8114067499999998  1.0000
  P   P3        1.0  0.8632794800000001  0.12459030999999997  0.18191414  1.0000
  P   P4        1.0  0.13672052  0.12459030999999993  0.68191414  1.0000
  S   S1        1.0  0.43097844  0.7161319699999998  0.71312064  1.0000
  S   S2        1.0  0.5690215600000001  0.7161319699999998  0.21312064  1.0000
  S   S3        1.0  0.55092731  0.10358816999999992  0.7902934  1.0000
  S   S4        1.0  0.44907269000000005  0.10358816999999998  0.2902934  1.0000
  S   S5        1.0  0.2480358  0.34678909  0.49689725  1.0000
  S   S6        1.0  0.7519642000000001  0.34678908999999997  0.99689725  1.0000
  S   S7        1.0  0.04749543  0.2987571399999999  0.76695946  1.0000
  S   S8        1.0  0.95250457  0.2987571399999999  0.26695946  1.0000
  S   S9        1.0  0.9503771200000001  0.8929068699999998  0.69312509  1.0000
  S   S10       1.0  0.04962288  0.8929068699999998  0.19312509  1.0000
  S   S11       1.0  0.26786932  0.64780393  0.0016354100000000001  1.0000
  S   S12       1.0  0.73213068  0.64780393  0.50163541  1.0000
