data_image0
_chemical_formula_structural       Nb3Br12N3O3
_chemical_formula_sum              "Nb3 Br12 N3 O3"
_cell_length_a       9.40235931749186
_cell_length_b       9.40235931749186
_cell_length_c       7.905488993902971
_cell_angle_alpha    72.63863469455997
_cell_angle_beta     72.63863469455997
_cell_angle_gamma    95.65361050864486

_space_group_name_H-M_alt    "P 1"
_space_group_IT_number       1

loop_
  _space_group_symop_operation_xyz
  'x, y, z'

loop_
  _atom_site_type_symbol
  _atom_site_label
  _atom_site_symmetry_multiplicity
  _atom_site_fract_x
  _atom_site_fract_y
  _atom_site_fract_z
  _atom_site_occupancy
  Nb  Nb1       1.0  0.5  0.5  0.0  1.0000
  Nb  Nb2       1.0  0.8278470000000001  0.8278470000000001  0.626041  1.0000
  Nb  Nb3       1.0  0.172153  0.172153  0.373959  1.0000
  Br  Br1       1.0  0.40536499999999986  0.40536499999999986  0.7689540000000001  1.0000
  Br  Br2       1.0  0.594635  0.594635  0.23104600000000003  1.0000
  Br  Br3       1.0  0.6819140000000001  0.318086  0.0  1.0000
  Br  Br4       1.0  0.3180859999999999  0.6819139999999999  0.0  1.0000
  Br  Br5       1.0  0.9732519999999999  0.7042269999999999  0.841797  1.0000
  Br  Br6       1.0  0.7042269999999998  0.9732519999999998  0.841797  1.0000
  Br  Br7       1.0  0.026748000000000008  0.295773  0.15820300000000004  1.0000
  Br  Br8       1.0  0.295773  0.026747999999999956  0.15820300000000004  1.0000
  Br  Br9       1.0  0.9366049999999999  0.6868959999999998  0.403431  1.0000
  Br  Br10      1.0  0.686896  0.936605  0.403431  1.0000
  Br  Br11      1.0  0.06339499999999994  0.31310399999999994  0.596569  1.0000
  Br  Br12      1.0  0.313104  0.06339499999999995  0.596569  1.0000
  N   N1        1.0  0.0  0.0  0.0  1.0000
  N   N2        1.0  0.7024919999999999  0.2975079999999999  0.5  1.0000
  N   N3        1.0  0.297508  0.702492  0.5  1.0000
  O   O1        1.0  0.6582340000000001  0.658234  0.789331  1.0000
  O   O2        1.0  0.34176600000000007  0.341766  0.210669  1.0000
  O   O3        1.0  0.0  0.0  0.5  1.0000
