data_image0
_chemical_formula_structural       Nd6Al2Ni16
_chemical_formula_sum              "Nd6 Al2 Ni16"
_cell_length_a       5.14527
_cell_length_b       5.145269541586815
_cell_length_c       16.272671
_cell_angle_alpha    90.0
_cell_angle_beta     90.0
_cell_angle_gamma    120.00000294720931

_space_group_name_H-M_alt    "P 1"
_space_group_IT_number       1

loop_
  _space_group_symop_operation_xyz
  'x, y, z'

loop_
  _atom_site_type_symbol
  _atom_site_label
  _atom_site_symmetry_multiplicity
  _atom_site_fract_x
  _atom_site_fract_y
  _atom_site_fract_z
  _atom_site_occupancy
  Nd  Nd1       1.0  0.333333  0.666667  0.9532099999999999  1.0000
  Nd  Nd2       1.0  0.6666670000000001  0.333333  0.04678999999999999  1.0000
  Nd  Nd3       1.0  0.6666670000000001  0.333333  0.45321  1.0000
  Nd  Nd4       1.0  0.333333  0.666667  0.54679  1.0000
  Nd  Nd5       1.0  0.333333  0.666667  0.7499999999999999  1.0000
  Nd  Nd6       1.0  0.6666670000000001  0.333333  0.25  1.0000
  Al  Al1       1.0  0.0  0.0  0.5  1.0000
  Al  Al2       1.0  0.0  0.0  0.0  1.0000
  Ni  Ni1       1.0  0.16823000000000005  0.8317700000000001  0.372795  1.0000
  Ni  Ni2       1.0  0.16823  0.33646  0.372795  1.0000
  Ni  Ni3       1.0  0.66354  0.8317700000000001  0.372795  1.0000
  Ni  Ni4       1.0  0.8317700000000001  0.16823  0.627205  1.0000
  Ni  Ni5       1.0  0.8317700000000001  0.66354  0.627205  1.0000
  Ni  Ni6       1.0  0.33646  0.16823  0.627205  1.0000
  Ni  Ni7       1.0  0.8317700000000001  0.16823  0.872795  1.0000
  Ni  Ni8       1.0  0.8317700000000001  0.66354  0.872795  1.0000
  Ni  Ni9       1.0  0.33646  0.16823  0.872795  1.0000
  Ni  Ni10      1.0  0.16823000000000005  0.8317700000000001  0.127205  1.0000
  Ni  Ni11      1.0  0.16823  0.33646  0.127205  1.0000
  Ni  Ni12      1.0  0.66354  0.8317700000000001  0.127205  1.0000
  Ni  Ni13      1.0  0.333333  0.666667  0.25  1.0000
  Ni  Ni14      1.0  0.6666670000000001  0.333333  0.7499999999999999  1.0000
  Ni  Ni15      1.0  0.0  0.0  0.25  1.0000
  Ni  Ni16      1.0  0.0  0.0  0.7499999999999999  1.0000
