data_image0
_chemical_formula_structural       Cs8Be4F16
_chemical_formula_sum              "Cs8 Be4 F16"
_cell_length_a       6.116338070000449
_cell_length_b       8.126635060012536
_cell_length_c       10.71135045001682
_cell_angle_alpha    90.0001997903689
_cell_angle_beta     89.99996504447839
_cell_angle_gamma    90.00002646312659

_space_group_name_H-M_alt    "P 1"
_space_group_IT_number       1

loop_
  _space_group_symop_operation_xyz
  'x, y, z'

loop_
  _atom_site_type_symbol
  _atom_site_label
  _atom_site_symmetry_multiplicity
  _atom_site_fract_x
  _atom_site_fract_y
  _atom_site_fract_z
  _atom_site_occupancy
  Cs  Cs1       1.0  0.74999963  0.01319788  0.68949579  1.0000
  Cs  Cs2       1.0  0.24999919  0.9867991000000002  0.3105053  1.0000
  Cs  Cs3       1.0  0.25000029  0.4867953500000001  0.18949049  1.0000
  Cs  Cs4       1.0  0.75000001  0.5132044700000001  0.81051002  1.0000
  Cs  Cs5       1.0  0.24999996000000002  0.16221936  0.90619998  1.0000
  Cs  Cs6       1.0  0.7500000400000001  0.8377810400000001  0.09379974  1.0000
  Cs  Cs7       1.0  0.75000025  0.33777888  0.40619984  1.0000
  Cs  Cs8       1.0  0.25000001  0.66222188  0.59379992  1.0000
  Be  Be1       1.0  0.7500001  0.2596541  0.0839468  1.0000
  Be  Be2       1.0  0.25000018  0.24034715000000004  0.5839473  1.0000
  Be  Be3       1.0  0.74999985  0.7596534000000001  0.41605329999999996  1.0000
  Be  Be4       1.0  0.24999974  0.7403485100000001  0.91605291  1.0000
  F   F1        1.0  0.25000001  0.049533169999999994  0.59027395  1.0000
  F   F2        1.0  0.75000002  0.9504665600000001  0.40972671  1.0000
  F   F3        1.0  0.75000024  0.45046769  0.09027403  1.0000
  F   F4        1.0  0.25000002  0.5495339200000001  0.90972605  1.0000
  F   F5        1.0  0.75000014  0.6941486400000001  0.5538561  1.0000
  F   F6        1.0  0.7499999400000001  0.19414772  0.9461434400000001  1.0000
  F   F7        1.0  0.25000012  0.30585191  0.4461433  1.0000
  F   F8        1.0  0.25000022000000005  0.8058516200000001  0.05385638000000001  1.0000
  F   F9        1.0  0.041857130000000006  0.80902376  0.8497209700000001  1.0000
  F   F10       1.0  0.54185903  0.19097589  0.15027845  1.0000
  F   F11       1.0  0.54185824  0.69097572  0.34972149  1.0000
  F   F12       1.0  0.0418582  0.30902377  0.65027829  1.0000
  F   F13       1.0  0.45814284  0.8090237300000002  0.8497211399999999  1.0000
  F   F14       1.0  0.9581410800000001  0.19097611000000003  0.15027844  1.0000
  F   F15       1.0  0.9581416  0.6909759700000001  0.3497216  1.0000
  F   F16       1.0  0.45814192000000004  0.30902372000000006  0.6502782600000001  1.0000
