data_image0
_chemical_formula_structural       La6F18
_chemical_formula_sum              "La6 F18"
_cell_length_a       7.164619761961592
_cell_length_b       7.164647131359566
_cell_length_c       7.331337750122157
_cell_angle_alpha    89.9998469966299
_cell_angle_beta     90.000639154566
_cell_angle_gamma    119.9997647742277

_space_group_name_H-M_alt    "P 1"
_space_group_IT_number       1

loop_
  _space_group_symop_operation_xyz
  'x, y, z'

loop_
  _atom_site_type_symbol
  _atom_site_label
  _atom_site_symmetry_multiplicity
  _atom_site_fract_x
  _atom_site_fract_y
  _atom_site_fract_z
  _atom_site_occupancy
  La  La1       1.0  0.32658497  0.9999980199999999  0.7521476799999999  1.0000
  La  La2       1.0  0.32658862  0.32659389  0.25210495  1.0000
  La  La3       1.0  0.99999033  0.67340304  0.25212346  1.0000
  La  La4       1.0  0.9999947800000001  0.32658891  0.7521610899999999  1.0000
  La  La5       1.0  0.6734303199999999  0.6734316899999999  0.7522064899999998  1.0000
  La  La6       1.0  0.67342915  0.99999751  0.25216914  1.0000
  F   F1        1.0  0.66666084  0.33333365  0.20565590999999994  1.0000
  F   F2        1.0  0.33332831999999984  0.6666667999999999  0.7056439699999999  1.0000
  F   F3        1.0  0.6666649499999999  0.33333187  0.7056426799999999  1.0000
  F   F4        1.0  0.33332453999999984  0.6666577099999998  0.20565593999999998  1.0000
  F   F5        1.0  0.99999622  0.9999964  0.8240611599999998  1.0000
  F   F6        1.0  7.699999999999997e-07  0.99999968  0.32409195999999996  1.0000
  F   F7        1.0  0.2799138899999998  0.9999909499999998  0.08338131999999998  1.0000
  F   F8        1.0  0.27991597000000007  0.2799180700000001  0.58337547  1.0000
  F   F9        1.0  0.99999639  0.72008641  0.5833731999999999  1.0000
  F   F10       1.0  0.9999993100000001  0.27991143000000007  0.08338194999999998  1.0000
  F   F11       1.0  0.7200933099999999  0.72009252  0.08337162  1.0000
  F   F12       1.0  0.72008829  0.99999789  0.5833696299999999  1.0000
  F   F13       1.0  0.37567324  5.599999999977813e-07  0.42081857999999994  1.0000
  F   F14       1.0  0.3756874099999999  0.37568295999999995  0.9208091199999999  1.0000
  F   F15       1.0  4.219999999876555e-06  0.6243172399999999  0.9208090699999999  1.0000
  F   F16       1.0  6.059999999961678e-06  0.3756865099999999  0.42082326  1.0000
  F   F17       1.0  0.6243189199999999  0.62431366  0.42081904  1.0000
  F   F18       1.0  0.62431018  2.6299999999724094e-06  0.9208063099999999  1.0000
