data_image0
_chemical_formula_structural       Tb2Fe12P7
_chemical_formula_sum              "Tb2 Fe12 P7"
_cell_length_a       3.637269
_cell_length_b       8.965811159834061
_cell_length_c       8.972772283216209
_cell_angle_alpha    119.95142050102152
_cell_angle_beta     90.0
_cell_angle_gamma    90.0

_space_group_name_H-M_alt    "P 1"
_space_group_IT_number       1

loop_
  _space_group_symop_operation_xyz
  'x, y, z'

loop_
  _atom_site_type_symbol
  _atom_site_label
  _atom_site_symmetry_multiplicity
  _atom_site_fract_x
  _atom_site_fract_y
  _atom_site_fract_z
  _atom_site_occupancy
  Tb  Tb1       1.0  0.0  0.666691  0.33334799999999987  1.0000
  Tb  Tb2       1.0  0.5  0.33337  0.666513  1.0000
  Fe  Fe1       1.0  0.0  0.3729139999999999  0.9449389999999999  1.0000
  Fe  Fe2       1.0  0.0  0.05516300000000004  0.427809  1.0000
  Fe  Fe3       1.0  0.0  0.5723990000000001  0.6274520000000001  1.0000
  Fe  Fe4       1.0  0.0  0.880738  0.725569  1.0000
  Fe  Fe5       1.0  0.0  0.274061  0.154653  1.0000
  Fe  Fe6       1.0  0.0  0.8448940000000001  0.11931200000000004  1.0000
  Fe  Fe7       1.0  0.5  0.9517609999999999  0.5687700000000001  1.0000
  Fe  Fe8       1.0  0.5  0.431357  0.383173  1.0000
  Fe  Fe9       1.0  0.5  0.6166829999999999  0.04813100000000003  1.0000
  Fe  Fe10      1.0  0.5  0.12030700000000011  0.9030710000000001  1.0000
  Fe  Fe11      1.0  0.5  0.09691499999999999  0.217361  1.0000
  Fe  Fe12      1.0  0.5  0.782679  0.8795400000000001  1.0000
  P   P1        1.0  0.0  0.11322199999999989  0.7042059999999999  1.0000
  P   P2        1.0  0.0  0.2958930000000001  0.40889400000000004  1.0000
  P   P3        1.0  0.0  0.591236  0.886877  1.0000
  P   P4        1.0  0.5  0.709958  0.599225  1.0000
  P   P5        1.0  0.5  0.40070200000000006  0.11121500000000004  1.0000
  P   P6        1.0  0.5  0.8890480000000001  0.28992100000000004  1.0000
  P   P7        1.0  0.0  9.000000000000004e-06  2.0000000000000005e-05  1.0000
