data_image0
_chemical_formula_structural       Eu10Cd4Sb10O2
_chemical_formula_sum              "Eu10 Cd4 Sb10 O2"
_cell_length_a       11.24426501306804
_cell_length_b       11.24426501306804
_cell_length_c       14.850709
_cell_angle_alpha    90.0
_cell_angle_beta     90.0
_cell_angle_gamma    155.8984609166532

_space_group_name_H-M_alt    "P 1"
_space_group_IT_number       1

loop_
  _space_group_symop_operation_xyz
  'x, y, z'

loop_
  _atom_site_type_symbol
  _atom_site_label
  _atom_site_symmetry_multiplicity
  _atom_site_fract_x
  _atom_site_fract_y
  _atom_site_fract_z
  _atom_site_occupancy
  Eu  Eu1       1.0  0.723347  0.27665300000000004  0.871795  1.0000
  Eu  Eu2       1.0  0.276653  0.723347  0.128205  1.0000
  Eu  Eu3       1.0  0.723347  0.27665300000000004  0.628205  1.0000
  Eu  Eu4       1.0  0.276653  0.723347  0.37179500000000004  1.0000
  Eu  Eu5       1.0  0.893221  0.10677900000000003  0.25  1.0000
  Eu  Eu6       1.0  0.10677899999999996  0.893221  0.75  1.0000
  Eu  Eu7       1.0  0.09591799999999999  0.904082  0.25  1.0000
  Eu  Eu8       1.0  0.9040819999999999  0.09591799999999996  0.75  1.0000
  Eu  Eu9       1.0  0.0  0.0  0.5  1.0000
  Eu  Eu10      1.0  0.0  0.0  0.0  1.0000
  Cd  Cd1       1.0  0.63173  0.36827  0.41442500000000004  1.0000
  Cd  Cd2       1.0  0.36826999999999993  0.6317299999999999  0.5855750000000001  1.0000
  Cd  Cd3       1.0  0.63173  0.36827  0.08557500000000001  1.0000
  Cd  Cd4       1.0  0.36826999999999993  0.6317299999999999  0.9144250000000002  1.0000
  Sb  Sb1       1.0  0.849947  0.15005300000000002  0.47705800000000004  1.0000
  Sb  Sb2       1.0  0.15005299999999996  0.849947  0.522942  1.0000
  Sb  Sb3       1.0  0.849947  0.15005300000000002  0.022942000000000004  1.0000
  Sb  Sb4       1.0  0.15005299999999996  0.849947  0.9770580000000001  1.0000
  Sb  Sb5       1.0  0.5033439999999999  0.49665599999999993  0.34868800000000005  1.0000
  Sb  Sb6       1.0  0.49665600000000004  0.503344  0.6513120000000001  1.0000
  Sb  Sb7       1.0  0.5033439999999999  0.49665599999999993  0.151312  1.0000
  Sb  Sb8       1.0  0.49665600000000004  0.503344  0.8486880000000001  1.0000
  Sb  Sb9       1.0  0.7068720000000001  0.29312800000000006  0.25  1.0000
  Sb  Sb10      1.0  0.29312800000000006  0.706872  0.75  1.0000
  O   O1        1.0  0.341551  0.658449  0.25  1.0000
  O   O2        1.0  0.6584490000000001  0.341551  0.75  1.0000
