data_image0
_chemical_formula_structural       Ga14Pt6
_chemical_formula_sum              "Ga14 Pt6"
_cell_length_a       7.6196768318386505
_cell_length_b       7.6196768318386505
_cell_length_c       7.6196768318386505
_cell_angle_alpha    109.47122063449069
_cell_angle_beta     109.47122063449069
_cell_angle_gamma    109.47122063449069

_space_group_name_H-M_alt    "P 1"
_space_group_IT_number       1

loop_
  _space_group_symop_operation_xyz
  'x, y, z'

loop_
  _atom_site_type_symbol
  _atom_site_label
  _atom_site_symmetry_multiplicity
  _atom_site_fract_x
  _atom_site_fract_y
  _atom_site_fract_z
  _atom_site_occupancy
  Ga  Ga1       1.0  0.4999999999999999  0.75  0.25  1.0000
  Ga  Ga2       1.0  0.7499999999999999  0.5  0.25  1.0000
  Ga  Ga3       1.0  0.25  0.75  0.5  1.0000
  Ga  Ga4       1.0  0.25  0.5  0.75  1.0000
  Ga  Ga5       1.0  0.5  0.25  0.75  1.0000
  Ga  Ga6       1.0  0.75  0.25  0.5  1.0000
  Ga  Ga7       1.0  0.67160662  0.0  0.0  1.0000
  Ga  Ga8       1.0  0.0  0.67160662  0.0  1.0000
  Ga  Ga9       1.0  0.0  0.0  0.67160662  1.0000
  Ga  Ga10      1.0  0.32839338  0.32839338  0.32839338  1.0000
  Ga  Ga11      1.0  0.32839338  0.0  0.0  1.0000
  Ga  Ga12      1.0  1.1333198345963803e-18  0.32839338  0.0  1.0000
  Ga  Ga13      1.0  0.0  0.0  0.32839338  1.0000
  Ga  Ga14      1.0  0.67160662  0.67160662  0.67160662  1.0000
  Pt  Pt1       1.0  1.3851441257540931e-17  0.34109053  0.34109053  1.0000
  Pt  Pt2       1.0  0.65890947  0.0  0.65890947  1.0000
  Pt  Pt3       1.0  0.65890947  0.65890947  6.925720628770466e-18  1.0000
  Pt  Pt4       1.0  0.0  0.65890947  0.65890947  1.0000
  Pt  Pt5       1.0  0.34109053  0.0  0.34109053  1.0000
  Pt  Pt6       1.0  0.34109053  0.34109053  0.0  1.0000
