data_image0
_chemical_formula_structural       Pr2P2H10C2O14
_chemical_formula_sum              "Pr2 P2 H10 C2 O14"
_cell_length_a       6.761789
_cell_length_b       7.146483751908907
_cell_length_c       7.843598011864962
_cell_angle_alpha    110.54253585495134
_cell_angle_beta     95.79501476046597
_cell_angle_gamma    89.49575901902455

_space_group_name_H-M_alt    "P 1"
_space_group_IT_number       1

loop_
  _space_group_symop_operation_xyz
  'x, y, z'

loop_
  _atom_site_type_symbol
  _atom_site_label
  _atom_site_symmetry_multiplicity
  _atom_site_fract_x
  _atom_site_fract_y
  _atom_site_fract_z
  _atom_site_occupancy
  Pr  Pr1       1.0  0.132151  0.22329000000000002  0.935125  1.0000
  Pr  Pr2       1.0  0.867849  0.7767099999999999  0.064875  1.0000
  P   P1        1.0  0.6758609999999999  0.253565  0.018482  1.0000
  P   P2        1.0  0.324139  0.746435  0.981518  1.0000
  H   H1        1.0  0.550905  0.159353  0.43554  1.0000
  H   H2        1.0  0.44909499999999997  0.840647  0.56446  1.0000
  H   H3        1.0  0.713787  0.666788  0.6365350000000001  1.0000
  H   H4        1.0  0.28621299999999994  0.333212  0.363465  1.0000
  H   H5        1.0  0.831933  0.48150000000000004  0.6704240000000001  1.0000
  H   H6        1.0  0.6284569999999999  0.29075  0.197888  1.0000
  H   H7        1.0  0.16806699999999997  0.5185  0.329576  1.0000
  H   H8        1.0  0.466097  0.256496  0.623557  1.0000
  H   H9        1.0  0.37154299999999996  0.7092499999999999  0.802112  1.0000
  H   H10       1.0  0.533903  0.743504  0.376443  1.0000
  C   C1        1.0  0.065432  0.910642  0.501097  1.0000
  C   C2        1.0  0.934568  0.08935799999999999  0.498903  1.0000
  O   O1        1.0  0.8189169999999999  0.424775  0.025407  1.0000
  O   O2        1.0  0.8262699999999998  0.070772  0.352543  1.0000
  O   O3        1.0  0.17372999999999997  0.929228  0.647457  1.0000
  O   O4        1.0  0.432358  0.222148  0.491518  1.0000
  O   O5        1.0  0.793116  0.62164  0.728469  1.0000
  O   O6        1.0  0.206884  0.3783599999999999  0.271531  1.0000
  O   O7        1.0  0.197998  0.937482  0.036729  1.0000
  O   O8        1.0  0.48104299999999994  0.234622  0.896216  1.0000
  O   O9        1.0  0.8020019999999999  0.06251799999999998  0.963271  1.0000
  O   O10       1.0  0.9454079999999999  0.24096099999999998  0.645595  1.0000
  O   O11       1.0  0.518957  0.765378  0.103784  1.0000
  O   O12       1.0  0.18108299999999997  0.575225  0.974593  1.0000
  O   O13       1.0  0.567642  0.7778519999999999  0.508482  1.0000
  O   O14       1.0  0.054592  0.759039  0.354405  1.0000
