data_image0
_chemical_formula_structural       Ca4Rh4O12
_chemical_formula_sum              "Ca4 Rh4 O12"
_cell_length_a       5.30813379
_cell_length_b       5.58872343
_cell_length_c       7.62858879
_cell_angle_alpha    90.0
_cell_angle_beta     90.0
_cell_angle_gamma    90.0

_space_group_name_H-M_alt    "P 1"
_space_group_IT_number       1

loop_
  _space_group_symop_operation_xyz
  'x, y, z'

loop_
  _atom_site_type_symbol
  _atom_site_label
  _atom_site_symmetry_multiplicity
  _atom_site_fract_x
  _atom_site_fract_y
  _atom_site_fract_z
  _atom_site_occupancy
  Ca  Ca1       1.0  0.51839054  0.56420498  0.24999999999999997  1.0000
  Ca  Ca2       1.0  0.9816094600000002  0.06420498  0.24999999999999997  1.0000
  Ca  Ca3       1.0  0.48160945999999993  0.43579502  0.7499999999999999  1.0000
  Ca  Ca4       1.0  0.01839054  0.9357950200000001  0.7499999999999999  1.0000
  Rh  Rh1       1.0  0.5  0.0  0.0  1.0000
  Rh  Rh2       1.0  0.0  0.5  0.49999999999999994  1.0000
  Rh  Rh3       1.0  0.5  0.0  0.49999999999999994  1.0000
  Rh  Rh4       1.0  0.0  0.5  0.0  1.0000
  O   O1        1.0  0.39747408999999995  0.96587668  0.24999999999999997  1.0000
  O   O2        1.0  0.10252591  0.46587668  0.24999999999999997  1.0000
  O   O3        1.0  0.60252591  0.03412332  0.7499999999999999  1.0000
  O   O4        1.0  0.89747409  0.53412332  0.7499999999999999  1.0000
  O   O5        1.0  0.80757889  0.80216072  0.051207239999999994  1.0000
  O   O6        1.0  0.69242111  0.30216072  0.44879276  1.0000
  O   O7        1.0  0.19242111000000003  0.19783928  0.55120724  1.0000
  O   O8        1.0  0.30757889  0.69783928  0.94879276  1.0000
  O   O9        1.0  0.19242111000000003  0.19783928  0.94879276  1.0000
  O   O10       1.0  0.30757889  0.69783928  0.55120724  1.0000
  O   O11       1.0  0.80757889  0.80216072  0.44879276  1.0000
  O   O12       1.0  0.69242111  0.30216072  0.051207239999999994  1.0000
