data_image0
_chemical_formula_structural       Ca2Be26
_chemical_formula_sum              "Ca2 Be26"
_cell_length_a       7.258653534448649
_cell_length_b       7.258652996615954
_cell_length_c       7.25858957
_cell_angle_alpha    60.00028900702594
_cell_angle_beta     60.000291458052814
_cell_angle_gamma    60.000583965497626

_space_group_name_H-M_alt    "P 1"
_space_group_IT_number       1

loop_
  _space_group_symop_operation_xyz
  'x, y, z'

loop_
  _atom_site_type_symbol
  _atom_site_label
  _atom_site_symmetry_multiplicity
  _atom_site_fract_x
  _atom_site_fract_y
  _atom_site_fract_z
  _atom_site_occupancy
  Ca  Ca1       1.0  0.25000000000000006  0.25  0.25000000000000006  1.0000
  Ca  Ca2       1.0  0.75  0.7499999999999998  0.7500000000000001  1.0000
  Be  Be1       1.0  0.0  0.0  0.0  1.0000
  Be  Be2       1.0  0.5000000000000001  0.5  0.5000000000000001  1.0000
  Be  Be3       1.0  0.28857026  0.93592609  0.06409517999999995  1.0000
  Be  Be4       1.0  0.56408894  0.43591105999999996  0.78857925  1.0000
  Be  Be5       1.0  0.7885818700000001  0.21141812999999998  0.56407981  1.0000
  Be  Be6       1.0  0.56407674  0.78858816  0.21142741999999998  1.0000
  Be  Be7       1.0  0.43592326000000003  0.21141183999999996  0.7885725800000001  1.0000
  Be  Be8       1.0  0.43592609000000004  0.78857026  0.5640951799999999  1.0000
  Be  Be9       1.0  0.78857026  0.43592609  0.21140946999999988  1.0000
  Be  Be10      1.0  0.06407674  0.2885881599999999  0.9359086800000003  1.0000
  Be  Be11      1.0  0.9359110600000001  0.06408893999999998  0.28857924999999995  1.0000
  Be  Be12      1.0  0.7114181300000001  0.28858186999999996  0.06407981000000004  1.0000
  Be  Be13      1.0  0.9359232600000001  0.7114118399999999  0.06409132000000005  1.0000
  Be  Be14      1.0  0.7114118400000001  0.9359232599999999  0.28857258  1.0000
  Be  Be15      1.0  0.06408894000000002  0.93591106  0.7114207500000003  1.0000
  Be  Be16      1.0  0.28858816  0.06407674  0.7114274200000001  1.0000
  Be  Be17      1.0  0.28858187  0.71141813  0.9359201900000002  1.0000
  Be  Be18      1.0  0.7885881600000001  0.56407674  0.43590868  1.0000
  Be  Be19      1.0  0.21141812999999998  0.78858187  0.43592019000000004  1.0000
  Be  Be20      1.0  0.21142974000000006  0.56407391  0.7885905300000001  1.0000
  Be  Be21      1.0  0.5640739100000001  0.21142974  0.43590482  1.0000
  Be  Be22      1.0  0.43591106000000013  0.5640889399999999  0.21142075000000005  1.0000
  Be  Be23      1.0  0.21141184000000007  0.43592325999999987  0.56409132  1.0000
  Be  Be24      1.0  0.06407391000000005  0.7114297399999999  0.28859052999999996  1.0000
  Be  Be25      1.0  0.71142974  0.06407391  0.93590482  1.0000
  Be  Be26      1.0  0.9359260900000002  0.28857026  0.71140947  1.0000
