data_image0
_chemical_formula_structural       Ta10Co10B10
_chemical_formula_sum              "Ta10 Co10 B10"
_cell_length_a       3.283489
_cell_length_b       5.890647
_cell_length_c       16.977162
_cell_angle_alpha    90.0
_cell_angle_beta     90.0
_cell_angle_gamma    90.0

_space_group_name_H-M_alt    "P 1"
_space_group_IT_number       1

loop_
  _space_group_symop_operation_xyz
  'x, y, z'

loop_
  _atom_site_type_symbol
  _atom_site_label
  _atom_site_symmetry_multiplicity
  _atom_site_fract_x
  _atom_site_fract_y
  _atom_site_fract_z
  _atom_site_occupancy
  Ta  Ta1       1.0  0.0  0.471611  0.32068  1.0000
  Ta  Ta2       1.0  0.0  0.471611  0.67932  1.0000
  Ta  Ta3       1.0  0.5  0.528389  0.17932  1.0000
  Ta  Ta4       1.0  0.5  0.528389  0.82068  1.0000
  Ta  Ta5       1.0  0.0  0.9780810000000001  0.3750450000000001  1.0000
  Ta  Ta6       1.0  0.0  0.9780810000000001  0.624955  1.0000
  Ta  Ta7       1.0  0.5  0.021919000000000004  0.124955  1.0000
  Ta  Ta8       1.0  0.5  0.021919000000000004  0.875045  1.0000
  Ta  Ta9       1.0  0.0  0.3563390000000001  0.5  1.0000
  Ta  Ta10      1.0  0.5  0.643661  0.0  1.0000
  Co  Co1       1.0  0.0  0.855479  0.226205  1.0000
  Co  Co2       1.0  0.0  0.855479  0.773795  1.0000
  Co  Co3       1.0  0.5  0.144521  0.273795  1.0000
  Co  Co4       1.0  0.5  0.144521  0.726205  1.0000
  Co  Co5       1.0  0.0  0.349903  0.071135  1.0000
  Co  Co6       1.0  0.0  0.349903  0.9288650000000002  1.0000
  Co  Co7       1.0  0.5  0.650097  0.428865  1.0000
  Co  Co8       1.0  0.5  0.650097  0.571135  1.0000
  Co  Co9       1.0  0.0  0.9940190000000001  0.0  1.0000
  Co  Co10      1.0  0.5  0.005981  0.5  1.0000
  B   B1        1.0  0.0  0.232347  0.201419  1.0000
  B   B2        1.0  0.0  0.232347  0.798581  1.0000
  B   B3        1.0  0.5  0.767653  0.298581  1.0000
  B   B4        1.0  0.5  0.767653  0.7014190000000001  1.0000
  B   B5        1.0  0.0  0.7290600000000002  0.10032100000000001  1.0000
  B   B6        1.0  0.0  0.7290600000000002  0.899679  1.0000
  B   B7        1.0  0.5  0.27094  0.39967900000000006  1.0000
  B   B8        1.0  0.5  0.27094  0.600321  1.0000
  B   B9        1.0  0.0  0.768839  0.5  1.0000
  B   B10       1.0  0.5  0.231161  0.0  1.0000
