data_image0
_chemical_formula_structural       Cs2Dy4Ag6Te10
_chemical_formula_sum              "Cs2 Dy4 Ag6 Te10"
_cell_length_a       8.567779064759605
_cell_length_b       8.567779064759605
_cell_length_c       18.679087
_cell_angle_alpha    90.0
_cell_angle_beta     90.0
_cell_angle_gamma    148.97324450583133

_space_group_name_H-M_alt    "P 1"
_space_group_IT_number       1

loop_
  _space_group_symop_operation_xyz
  'x, y, z'

loop_
  _atom_site_type_symbol
  _atom_site_label
  _atom_site_symmetry_multiplicity
  _atom_site_fract_x
  _atom_site_fract_y
  _atom_site_fract_z
  _atom_site_occupancy
  Cs  Cs1       1.0  0.557655  0.442345  0.24999999999999997  1.0000
  Cs  Cs2       1.0  0.44234500000000004  0.557655  0.75  1.0000
  Dy  Dy1       1.0  0.692217  0.307783  0.905797  1.0000
  Dy  Dy2       1.0  0.3077830000000001  0.6922170000000001  0.094203  1.0000
  Dy  Dy3       1.0  0.692217  0.307783  0.5942029999999999  1.0000
  Dy  Dy4       1.0  0.3077830000000001  0.6922170000000001  0.405797  1.0000
  Ag  Ag1       1.0  0.841363  0.15863700000000003  0.24999999999999997  1.0000
  Ag  Ag2       1.0  0.15863700000000003  0.841363  0.75  1.0000
  Ag  Ag3       1.0  0.08267800000000006  0.917322  0.46474999999999994  1.0000
  Ag  Ag4       1.0  0.9173219999999999  0.08267799999999995  0.53525  1.0000
  Ag  Ag5       1.0  0.08267800000000006  0.917322  0.03525  1.0000
  Ag  Ag6       1.0  0.9173219999999999  0.08267799999999995  0.96475  1.0000
  Te  Te1       1.0  0.06536999999999997  0.93463  0.882041  1.0000
  Te  Te2       1.0  0.9346300000000001  0.06537000000000001  0.11795899999999998  1.0000
  Te  Te3       1.0  0.06536999999999997  0.93463  0.6179589999999999  1.0000
  Te  Te4       1.0  0.9346300000000001  0.06537000000000001  0.38204099999999996  1.0000
  Te  Te5       1.0  0.677519  0.322481  0.428817  1.0000
  Te  Te6       1.0  0.322481  0.677519  0.5711829999999999  1.0000
  Te  Te7       1.0  0.677519  0.322481  0.071183  1.0000
  Te  Te8       1.0  0.322481  0.677519  0.9288169999999999  1.0000
  Te  Te9       1.0  0.245587  0.754413  0.24999999999999997  1.0000
  Te  Te10      1.0  0.754413  0.24558700000000008  0.75  1.0000
