data_image0
_chemical_formula_structural       Li18Ge8
_chemical_formula_sum              "Li18 Ge8"
_cell_length_a       4.429051235417711
_cell_length_b       4.429051235417711
_cell_length_c       23.53126705
_cell_angle_alpha    90.0
_cell_angle_beta     90.0
_cell_angle_gamma    120.32881862885208

_space_group_name_H-M_alt    "P 1"
_space_group_IT_number       1

loop_
  _space_group_symop_operation_xyz
  'x, y, z'

loop_
  _atom_site_type_symbol
  _atom_site_label
  _atom_site_symmetry_multiplicity
  _atom_site_fract_x
  _atom_site_fract_y
  _atom_site_fract_z
  _atom_site_occupancy
  Li  Li1       1.0  0.8463884  0.1536116  0.25  1.0000
  Li  Li2       1.0  0.1536116  0.8463884  0.7500000000000001  1.0000
  Li  Li3       1.0  0.16320953  0.83679047  0.51705975  1.0000
  Li  Li4       1.0  0.83679047  0.16320953000000005  0.48294025000000007  1.0000
  Li  Li5       1.0  0.83679047  0.16320953000000005  0.01705975  1.0000
  Li  Li6       1.0  0.16320953  0.83679047  0.98294025  1.0000
  Li  Li7       1.0  0.15325275000000005  0.84674725  0.6315886600000001  1.0000
  Li  Li8       1.0  0.84674725  0.15325275000000005  0.36841134  1.0000
  Li  Li9       1.0  0.8238496999999999  0.17615030000000004  0.59335341  1.0000
  Li  Li10      1.0  0.17615030000000004  0.8238497  0.40664659  1.0000
  Li  Li11      1.0  0.17615030000000004  0.8238497  0.09335341000000001  1.0000
  Li  Li12      1.0  0.8238496999999999  0.17615030000000004  0.90664659  1.0000
  Li  Li13      1.0  0.48732303  0.51267697  0.82361871  1.0000
  Li  Li14      1.0  0.51267697  0.48732303000000005  0.17638129  1.0000
  Li  Li15      1.0  0.51267697  0.48732303000000005  0.32361871  1.0000
  Li  Li16      1.0  0.48732303  0.51267697  0.67638129  1.0000
  Li  Li17      1.0  0.15325275000000005  0.84674725  0.86841134  1.0000
  Li  Li18      1.0  0.84674725  0.15325275000000005  0.13158866000000002  1.0000
  Ge  Ge1       1.0  0.4945372099999999  0.5054627899999999  0.55406384  1.0000
  Ge  Ge2       1.0  0.50546279  0.49453721  0.4459361600000001  1.0000
  Ge  Ge3       1.0  0.50546279  0.49453721  0.05406384  1.0000
  Ge  Ge4       1.0  0.4945372099999999  0.5054627899999999  0.9459361600000001  1.0000
  Ge  Ge5       1.0  0.82040798  0.17959202  0.6993431100000002  1.0000
  Ge  Ge6       1.0  0.17959201999999988  0.8204079799999999  0.30065689  1.0000
  Ge  Ge7       1.0  0.17959201999999988  0.8204079799999999  0.19934311  1.0000
  Ge  Ge8       1.0  0.82040798  0.17959202  0.8006568900000001  1.0000
