data_image0
_chemical_formula_structural       Nd6Cu2Sn2S14
_chemical_formula_sum              "Nd6 Cu2 Sn2 S14"
_cell_length_a       10.164372549479923
_cell_length_b       10.164372549479923
_cell_length_c       6.129378
_cell_angle_alpha    90.0
_cell_angle_beta     90.0
_cell_angle_gamma    120.00000357654136

_space_group_name_H-M_alt    "P 1"
_space_group_IT_number       1

loop_
  _space_group_symop_operation_xyz
  'x, y, z'

loop_
  _atom_site_type_symbol
  _atom_site_label
  _atom_site_symmetry_multiplicity
  _atom_site_fract_x
  _atom_site_fract_y
  _atom_site_fract_z
  _atom_site_occupancy
  Nd  Nd1       1.0  0.862104  0.21926700000000002  0.26087  1.0000
  Nd  Nd2       1.0  0.357163  0.13789600000000002  0.26087  1.0000
  Nd  Nd3       1.0  0.13789599999999994  0.780733  0.7608699999999999  1.0000
  Nd  Nd4       1.0  0.219267  0.357163  0.7608699999999999  1.0000
  Nd  Nd5       1.0  0.642837  0.8621040000000001  0.7608699999999999  1.0000
  Nd  Nd6       1.0  0.780733  0.642837  0.26087  1.0000
  Cu  Cu1       1.0  0.0  0.0  0.7016969999999999  1.0000
  Cu  Cu2       1.0  0.0  0.0  0.20169699999999996  1.0000
  Sn  Sn1       1.0  0.6666670000000001  0.33333300000000005  0.832968  1.0000
  Sn  Sn2       1.0  0.33333299999999993  0.666667  0.33296799999999993  1.0000
  S   S1        1.0  0.5717000000000001  0.08771900000000007  0.005405  1.0000
  S   S2        1.0  0.25458300000000006  0.10100700000000003  0.718025  1.0000
  S   S3        1.0  0.912281  0.4839810000000001  0.005405  1.0000
  S   S4        1.0  0.153575  0.254583  0.218025  1.0000
  S   S5        1.0  0.48398099999999994  0.5717  0.505405  1.0000
  S   S6        1.0  0.4283000000000002  0.9122810000000001  0.505405  1.0000
  S   S7        1.0  0.33333299999999993  0.666667  0.944435  1.0000
  S   S8        1.0  0.6666670000000001  0.33333300000000005  0.44443499999999997  1.0000
  S   S9        1.0  0.846425  0.745417  0.718025  1.0000
  S   S10       1.0  0.7454170000000001  0.8989930000000002  0.218025  1.0000
  S   S11       1.0  0.08771899999999998  0.516019  0.505405  1.0000
  S   S12       1.0  0.10100699999999992  0.8464249999999999  0.218025  1.0000
  S   S13       1.0  0.5160190000000001  0.42830000000000007  0.005405  1.0000
  S   S14       1.0  0.8989930000000002  0.15357500000000004  0.718025  1.0000
