data_image0
_chemical_formula_structural       As16S12
_chemical_formula_sum              "As16 S12"
_cell_length_a       6.79579656
_cell_length_b       10.16654238
_cell_length_c       11.57031641
_cell_angle_alpha    90.0
_cell_angle_beta     90.0
_cell_angle_gamma    90.0

_space_group_name_H-M_alt    "P 1"
_space_group_IT_number       1

loop_
  _space_group_symop_operation_xyz
  'x, y, z'

loop_
  _atom_site_type_symbol
  _atom_site_label
  _atom_site_symmetry_multiplicity
  _atom_site_fract_x
  _atom_site_fract_y
  _atom_site_fract_z
  _atom_site_occupancy
  As  As1       1.0  0.21695559  0.6268143900000002  0.9269444900000001  1.0000
  As  As2       1.0  0.78304441  0.12681439  0.07305551000000002  1.0000
  As  As3       1.0  0.7169555900000001  0.12681439  0.57305551  1.0000
  As  As4       1.0  0.21695559  0.87318561  0.9269444900000001  1.0000
  As  As5       1.0  0.8992164600000001  0.25  0.42145929  1.0000
  As  As6       1.0  0.78304441  0.37318661000000003  0.07305551000000002  1.0000
  As  As7       1.0  0.39921646  0.75  0.07854071  1.0000
  As  As8       1.0  0.16735335  0.25  0.68623711  1.0000
  As  As9       1.0  0.10078354  0.75  0.57854071  1.0000
  As  As10      1.0  0.7169555900000001  0.37318661000000003  0.57305551  1.0000
  As  As11      1.0  0.83264665  0.75  0.31376289000000007  1.0000
  As  As12      1.0  0.33264665  0.25  0.18623711000000004  1.0000
  As  As13      1.0  0.28304441  0.6268143900000002  0.42694449000000007  1.0000
  As  As14      1.0  0.66735335  0.75  0.81376289  1.0000
  As  As15      1.0  0.28304441  0.87318561  0.42694449000000007  1.0000
  As  As16      1.0  0.60078354  0.25  0.9214592900000002  1.0000
  S   S1        1.0  0.79784831  0.75  0.50674043  1.0000
  S   S2        1.0  0.45183812  0.5834876200000001  0.79952081  1.0000
  S   S3        1.0  0.54816188  0.41651238  0.20047919000000003  1.0000
  S   S4        1.0  0.70215169  0.75  0.006740430000000001  1.0000
  S   S5        1.0  0.45183812  0.9165123800000001  0.79952081  1.0000
  S   S6        1.0  0.20215169  0.25  0.49325957000000004  1.0000
  S   S7        1.0  0.9518381200000001  0.41651238  0.7004791900000001  1.0000
  S   S8        1.0  0.29784831  0.25  0.9932595700000001  1.0000
  S   S9        1.0  0.54816188  0.08348762  0.20047919000000003  1.0000
  S   S10       1.0  0.9518381200000001  0.08348762  0.7004791900000001  1.0000
  S   S11       1.0  0.04816188  0.9165123800000001  0.29952081  1.0000
  S   S12       1.0  0.04816188  0.5834876200000001  0.29952081  1.0000
