data_image0
_chemical_formula_structural       Mn12Ge4Ir4
_chemical_formula_sum              "Mn12 Ge4 Ir4"
_cell_length_a       6.609486
_cell_length_b       6.609486
_cell_length_c       6.609486
_cell_angle_alpha    90.0
_cell_angle_beta     90.0
_cell_angle_gamma    90.0

_space_group_name_H-M_alt    "P 1"
_space_group_IT_number       1

loop_
  _space_group_symop_operation_xyz
  'x, y, z'

loop_
  _atom_site_type_symbol
  _atom_site_label
  _atom_site_symmetry_multiplicity
  _atom_site_fract_x
  _atom_site_fract_y
  _atom_site_fract_z
  _atom_site_occupancy
  Mn  Mn1       1.0  0.12063  0.20617900000000003  0.453031  1.0000
  Mn  Mn2       1.0  0.453031  0.12063  0.20617900000000003  1.0000
  Mn  Mn3       1.0  0.20617900000000003  0.453031  0.12063  1.0000
  Mn  Mn4       1.0  0.293821  0.546969  0.62063  1.0000
  Mn  Mn5       1.0  0.953031  0.37937  0.793821  1.0000
  Mn  Mn6       1.0  0.793821  0.953031  0.37937  1.0000
  Mn  Mn7       1.0  0.046969000000000004  0.8793700000000001  0.7061790000000001  1.0000
  Mn  Mn8       1.0  0.546969  0.62063  0.293821  1.0000
  Mn  Mn9       1.0  0.7061790000000001  0.046969000000000004  0.8793700000000001  1.0000
  Mn  Mn10      1.0  0.62063  0.293821  0.546969  1.0000
  Mn  Mn11      1.0  0.8793700000000001  0.7061790000000001  0.046969000000000004  1.0000
  Mn  Mn12      1.0  0.37937  0.793821  0.953031  1.0000
  Ge  Ge1       1.0  0.9381390000000001  0.561861  0.43813900000000006  1.0000
  Ge  Ge2       1.0  0.561861  0.43813900000000006  0.9381390000000001  1.0000
  Ge  Ge3       1.0  0.43813900000000006  0.9381390000000001  0.561861  1.0000
  Ge  Ge4       1.0  0.061861000000000006  0.061861000000000006  0.061861000000000006  1.0000
  Ir  Ir1       1.0  0.310346  0.189654  0.810346  1.0000
  Ir  Ir2       1.0  0.189654  0.810346  0.310346  1.0000
  Ir  Ir3       1.0  0.810346  0.310346  0.189654  1.0000
  Ir  Ir4       1.0  0.6896540000000001  0.6896540000000001  0.6896540000000001  1.0000
