data_image0
_chemical_formula_structural       Lu4Ni20Sn4
_chemical_formula_sum              "Lu4 Ni20 Sn4"
_cell_length_a       4.77849312
_cell_length_b       7.90320916
_cell_length_c       10.10311673
_cell_angle_alpha    90.0
_cell_angle_beta     90.0
_cell_angle_gamma    90.0

_space_group_name_H-M_alt    "P 1"
_space_group_IT_number       1

loop_
  _space_group_symop_operation_xyz
  'x, y, z'

loop_
  _atom_site_type_symbol
  _atom_site_label
  _atom_site_symmetry_multiplicity
  _atom_site_fract_x
  _atom_site_fract_y
  _atom_site_fract_z
  _atom_site_occupancy
  Lu  Lu1       1.0  0.75  0.24566679999999996  0.5604464  1.0000
  Lu  Lu2       1.0  0.25  0.2543332  0.0604464  1.0000
  Lu  Lu3       1.0  0.75  0.7456667999999999  0.9395536  1.0000
  Lu  Lu4       1.0  0.25  0.7543332  0.4395536  1.0000
  Ni  Ni1       1.0  0.75  0.91440836  0.48266271  1.0000
  Ni  Ni2       1.0  0.25  0.5855916399999999  0.9826627100000002  1.0000
  Ni  Ni3       1.0  0.75  0.41440836  0.01733729  1.0000
  Ni  Ni4       1.0  0.25  0.08559164  0.51733729  1.0000
  Ni  Ni5       1.0  0.25  0.18888902  0.74196722  1.0000
  Ni  Ni6       1.0  0.75  0.31111098  0.24196722  1.0000
  Ni  Ni7       1.0  0.25  0.68888902  0.75803278  1.0000
  Ni  Ni8       1.0  0.75  0.81111098  0.25803278  1.0000
  Ni  Ni9       1.0  0.75  0.54712959  0.40115370000000006  1.0000
  Ni  Ni10      1.0  0.25  0.9528704099999998  0.9011536999999998  1.0000
  Ni  Ni11      1.0  0.75  0.04712959  0.0988463  1.0000
  Ni  Ni12      1.0  0.25  0.45287041  0.5988463  1.0000
  Ni  Ni13      1.0  0.49901626  0.06625895  0.30951663  1.0000
  Ni  Ni14      1.0  0.50098374  0.43374105  0.8095166299999998  1.0000
  Ni  Ni15      1.0  0.00098374  0.5662589499999999  0.19048337  1.0000
  Ni  Ni16      1.0  0.9990162600000001  0.93374105  0.69048337  1.0000
  Ni  Ni17      1.0  0.50098374  0.93374105  0.69048337  1.0000
  Ni  Ni18      1.0  0.49901626  0.5662589499999999  0.19048337  1.0000
  Ni  Ni19      1.0  0.9990162600000001  0.43374105  0.8095166299999998  1.0000
  Ni  Ni20      1.0  0.00098374  0.06625895  0.30951663  1.0000
  Sn  Sn1       1.0  0.75  0.63969866  0.63930499  1.0000
  Sn  Sn2       1.0  0.25  0.86030134  0.13930499  1.0000
  Sn  Sn3       1.0  0.75  0.13969866  0.86069501  1.0000
  Sn  Sn4       1.0  0.25  0.36030134  0.36069501  1.0000
