data_image0
_chemical_formula_structural       Al6H18
_chemical_formula_sum              "Al6 H18"
_cell_length_a       6.394526730303856
_cell_length_b       6.394526730303856
_cell_length_c       6.53961209
_cell_angle_alpha    90.0
_cell_angle_beta     90.0
_cell_angle_gamma    119.23924736497736

_space_group_name_H-M_alt    "P 1"
_space_group_IT_number       1

loop_
  _space_group_symop_operation_xyz
  'x, y, z'

loop_
  _atom_site_type_symbol
  _atom_site_label
  _atom_site_symmetry_multiplicity
  _atom_site_fract_x
  _atom_site_fract_y
  _atom_site_fract_z
  _atom_site_occupancy
  Al  Al1       1.0  0.5  0.0  0.0  1.0000
  Al  Al2       1.0  0.0  0.5  0.0  1.0000
  Al  Al3       1.0  0.500001  0.500001  0.0  1.0000
  Al  Al4       1.0  0.5  0.0  0.5  1.0000
  Al  Al5       1.0  0.0  0.5  0.5  1.0000
  Al  Al6       1.0  0.500001  0.500001  0.5  1.0000
  H   H1        1.0  0.20688587  0.41158067  0.05035522  1.0000
  H   H2        1.0  0.5884183300000001  0.7931141300000001  0.05035522  1.0000
  H   H3        1.0  0.7856273000000001  0.2143737  0.056261860000000004  1.0000
  H   H4        1.0  0.54386377  0.45613723  0.25  1.0000
  H   H5        1.0  0.006657709999999987  0.5791767  0.25  1.0000
  H   H6        1.0  0.4208263000000001  0.9933442900000001  0.25  1.0000
  H   H7        1.0  0.7856273000000001  0.2143737  0.44373814000000006  1.0000
  H   H8        1.0  0.20688587  0.41158067  0.4496447800000001  1.0000
  H   H9        1.0  0.5884183300000001  0.7931141300000001  0.4496447800000001  1.0000
  H   H10       1.0  0.41158067  0.20688587  0.55035522  1.0000
  H   H11       1.0  0.79311413  0.58841833  0.55035522  1.0000
  H   H12       1.0  0.2143737  0.7856273  0.55626286  1.0000
  H   H13       1.0  0.5791767  0.006657709999999975  0.7500000000000001  1.0000
  H   H14       1.0  0.9933442900000001  0.42082630000000004  0.7500000000000001  1.0000
  H   H15       1.0  0.45613723000000006  0.54386377  0.7500000000000001  1.0000
  H   H16       1.0  0.2143737  0.7856273  0.94373814  1.0000
  H   H17       1.0  0.41158067  0.20688587  0.9496457800000001  1.0000
  H   H18       1.0  0.79311413  0.58841833  0.9496457800000001  1.0000
