data_image0
_chemical_formula_structural       Mg2Be26
_chemical_formula_sum              "Mg2 Be26"
_cell_length_a       7.139748469490087
_cell_length_b       7.139747252795872
_cell_length_c       7.1397074
_cell_angle_alpha    60.000194004008094
_cell_angle_beta     60.00019964112613
_cell_angle_gamma    60.00038678816178

_space_group_name_H-M_alt    "P 1"
_space_group_IT_number       1

loop_
  _space_group_symop_operation_xyz
  'x, y, z'

loop_
  _atom_site_type_symbol
  _atom_site_label
  _atom_site_symmetry_multiplicity
  _atom_site_fract_x
  _atom_site_fract_y
  _atom_site_fract_z
  _atom_site_occupancy
  Mg  Mg1       1.0  0.25  0.25  0.25  1.0000
  Mg  Mg2       1.0  0.75  0.75  0.7499999999999999  1.0000
  Be  Be1       1.0  0.0  0.0  0.0  1.0000
  Be  Be2       1.0  0.5  0.5  0.5  1.0000
  Be  Be3       1.0  0.2903228800000001  0.9347145399999999  0.06528546000000002  1.0000
  Be  Be4       1.0  0.5652854599999999  0.43471454  0.79032288  1.0000
  Be  Be5       1.0  0.79032188  0.20967812  0.56528646  1.0000
  Be  Be6       1.0  0.56528546  0.79032188  0.2096771199999998  1.0000
  Be  Be7       1.0  0.43471454000000004  0.20967811999999997  0.79032288  1.0000
  Be  Be8       1.0  0.43471454000000004  0.7903228799999998  0.5652854599999999  1.0000
  Be  Be9       1.0  0.7903228800000001  0.43471454  0.20967711999999994  1.0000
  Be  Be10      1.0  0.06528546  0.29032188  0.9347155399999999  1.0000
  Be  Be11      1.0  0.93471454  0.06528546  0.29032288000000006  1.0000
  Be  Be12      1.0  0.70967812  0.29032188  0.06528546000000002  1.0000
  Be  Be13      1.0  0.93471454  0.7096781200000001  0.06528445999999996  1.0000
  Be  Be14      1.0  0.70967812  0.9347145400000001  0.2903228799999999  1.0000
  Be  Be15      1.0  0.06528545999999999  0.9347145400000001  0.7096771199999999  1.0000
  Be  Be16      1.0  0.29032188  0.06528546  0.7096771200000002  1.0000
  Be  Be17      1.0  0.29032188000000003  0.70967812  0.93471454  1.0000
  Be  Be18      1.0  0.79032188  0.56528546  0.43471553999999984  1.0000
  Be  Be19      1.0  0.20967811999999994  0.7903218800000001  0.4347135399999999  1.0000
  Be  Be20      1.0  0.20967711999999997  0.56528546  0.79032288  1.0000
  Be  Be21      1.0  0.56528546  0.20967712  0.43471454000000004  1.0000
  Be  Be22      1.0  0.43471454000000004  0.56528546  0.20967712  1.0000
  Be  Be23      1.0  0.20967812000000002  0.43471454  0.56528446  1.0000
  Be  Be24      1.0  0.06528545999999999  0.70967712  0.29032288  1.0000
  Be  Be25      1.0  0.70967712  0.06528546  0.93471454  1.0000
  Be  Be26      1.0  0.93471454  0.29032288  0.7096771199999999  1.0000
