data_image0
_chemical_formula_structural       Cu2C6N4O10
_chemical_formula_sum              "Cu2 C6 N4 O10"
_cell_length_a       6.950721
_cell_length_b       7.1134860779924916
_cell_length_c       8.6539786637408
_cell_angle_alpha    105.4330067056002
_cell_angle_beta     90.64948243757532
_cell_angle_gamma    112.19062950933203

_space_group_name_H-M_alt    "P 1"
_space_group_IT_number       1

loop_
  _space_group_symop_operation_xyz
  'x, y, z'

loop_
  _atom_site_type_symbol
  _atom_site_label
  _atom_site_symmetry_multiplicity
  _atom_site_fract_x
  _atom_site_fract_y
  _atom_site_fract_z
  _atom_site_occupancy
  Cu  Cu1       1.0  0.8888600000000001  0.8189359999999999  0.8399660000000001  1.0000
  Cu  Cu2       1.0  0.11113999999999999  0.18106399999999997  0.160034  1.0000
  C   C1        1.0  0.21675000000000003  0.191164  0.840118  1.0000
  C   C2        1.0  0.78325  0.8088359999999999  0.159882  1.0000
  C   C3        1.0  0.789283  0.16961100000000004  0.995219  1.0000
  C   C4        1.0  0.21071699999999993  0.8303889999999999  0.0047810000000000005  1.0000
  C   C5        1.0  0.717076  0.417019  0.583403  1.0000
  C   C6        1.0  0.28292399999999995  0.5829809999999999  0.416597  1.0000
  N   N1        1.0  0.820127  0.286719  0.5658090000000001  1.0000
  N   N2        1.0  0.179873  0.713281  0.434191  1.0000
  N   N3        1.0  0.6380520000000001  0.237941  0.458744  1.0000
  N   N4        1.0  0.36194799999999994  0.7620589999999999  0.541256  1.0000
  O   O1        1.0  0.13484  0.05394799999999999  0.719747  1.0000
  O   O2        1.0  0.86516  0.9460519999999999  0.280253  1.0000
  O   O3        1.0  0.686643  0.03810199999999998  0.875885  1.0000
  O   O4        1.0  0.31335700000000005  0.961898  0.124115  1.0000
  O   O5        1.0  0.694472  0.6658289999999999  0.043844  1.0000
  O   O6        1.0  0.305528  0.334171  0.956156  1.0000
  O   O7        1.0  0.140495  0.678265  0.8899280000000002  1.0000
  O   O8        1.0  0.859505  0.321735  0.110072  1.0000
  O   O9        1.0  0.699383  0.582397  0.65865  1.0000
  O   O10       1.0  0.300617  0.41760299999999995  0.34135  1.0000
