data_image0
_chemical_formula_structural       Sn4W4O16
_chemical_formula_sum              "Sn4 W4 O16"
_cell_length_a       7.620549
_cell_length_b       7.620549
_cell_length_c       7.620549
_cell_angle_alpha    90.0
_cell_angle_beta     90.0
_cell_angle_gamma    90.0

_space_group_name_H-M_alt    "P 1"
_space_group_IT_number       1

loop_
  _space_group_symop_operation_xyz
  'x, y, z'

loop_
  _atom_site_type_symbol
  _atom_site_label
  _atom_site_symmetry_multiplicity
  _atom_site_fract_x
  _atom_site_fract_y
  _atom_site_fract_z
  _atom_site_occupancy
  Sn  Sn1       1.0  0.819879  0.819879  0.819879  1.0000
  Sn  Sn2       1.0  0.680121  0.18012100000000003  0.319879  1.0000
  Sn  Sn3       1.0  0.319879  0.680121  0.18012100000000003  1.0000
  Sn  Sn4       1.0  0.18012100000000003  0.319879  0.680121  1.0000
  W   W1        1.0  0.165477  0.165477  0.165477  1.0000
  W   W2        1.0  0.334523  0.834523  0.665477  1.0000
  W   W3        1.0  0.665477  0.334523  0.834523  1.0000
  W   W4        1.0  0.834523  0.665477  0.334523  1.0000
  O   O1        1.0  0.647938  0.232936  0.048471  1.0000
  O   O2        1.0  0.147938  0.267064  0.951529  1.0000
  O   O3        1.0  0.35206200000000004  0.732936  0.451529  1.0000
  O   O4        1.0  0.267064  0.951529  0.147938  1.0000
  O   O5        1.0  0.451529  0.35206200000000004  0.732936  1.0000
  O   O6        1.0  0.951529  0.147938  0.267064  1.0000
  O   O7        1.0  0.232936  0.048471  0.647938  1.0000
  O   O8        1.0  0.048471  0.647938  0.232936  1.0000
  O   O9        1.0  0.299517  0.299517  0.299517  1.0000
  O   O10       1.0  0.200483  0.700483  0.799517  1.0000
  O   O11       1.0  0.799517  0.200483  0.700483  1.0000
  O   O12       1.0  0.700483  0.799517  0.200483  1.0000
  O   O13       1.0  0.852062  0.767064  0.548471  1.0000
  O   O14       1.0  0.548471  0.852062  0.767064  1.0000
  O   O15       1.0  0.767064  0.548471  0.852062  1.0000
  O   O16       1.0  0.732936  0.451529  0.35206200000000004  1.0000
