data_image0
_chemical_formula_structural       Ba2Ru7O18
_chemical_formula_sum              "Ba2 Ru7 O18"
_cell_length_a       6.781382063834892
_cell_length_b       7.162419796628749
_cell_length_c       7.536623485308875
_cell_angle_alpha    93.33363675458945
_cell_angle_beta     93.84214842985445
_cell_angle_gamma    115.8642704439364

_space_group_name_H-M_alt    "P 1"
_space_group_IT_number       1

loop_
  _space_group_symop_operation_xyz
  'x, y, z'

loop_
  _atom_site_type_symbol
  _atom_site_label
  _atom_site_symmetry_multiplicity
  _atom_site_fract_x
  _atom_site_fract_y
  _atom_site_fract_z
  _atom_site_occupancy
  Ba  Ba1       1.0  0.31737457999999996  0.6863761399999999  0.62420622  1.0000
  Ba  Ba2       1.0  0.68262542  0.31362386  0.37579378  1.0000
  Ru  Ru1       1.0  0.38848272  0.27894846  0.8838579  1.0000
  Ru  Ru2       1.0  0.8001911700000001  0.12814956  0.81470742  1.0000
  Ru  Ru3       1.0  0.19980882999999997  0.8718504399999999  0.18529258  1.0000
  Ru  Ru4       1.0  0.61151728  0.7210515400000002  0.11614210000000001  1.0000
  Ru  Ru5       1.0  0.0  0.0  0.5  1.0000
  Ru  Ru6       1.0  0.82378541  0.62145602  0.8050313  1.0000
  Ru  Ru7       1.0  0.17621459  0.37854398  0.19496870000000002  1.0000
  O   O1        1.0  0.9208500700000001  0.73097017  0.58496079  1.0000
  O   O2        1.0  0.28771985  0.16723259  0.1162258  1.0000
  O   O3        1.0  0.32010947  0.51534759  0.97873148  1.0000
  O   O4        1.0  0.4792231800000001  0.5589248299999999  0.30939844  1.0000
  O   O5        1.0  0.49284113000000007  0.91247329  0.16821838  1.0000
  O   O6        1.0  0.8964389800000001  0.39843595000000004  0.73119291  1.0000
  O   O7        1.0  0.7122801500000001  0.83276741  0.8837742  1.0000
  O   O8        1.0  0.9120026000000001  0.23167410000000002  0.05265067999999999  1.0000
  O   O9        1.0  0.6798905300000001  0.48465241000000003  0.02126852  1.0000
  O   O10       1.0  0.07914992999999998  0.26902983  0.41503920999999994  1.0000
  O   O11       1.0  0.09773820000000001  0.13266828  0.75230414  1.0000
  O   O12       1.0  0.7237999300000001  0.0008640800000000068  0.57182725  1.0000
  O   O13       1.0  0.10356101999999999  0.60156405  0.26880708999999997  1.0000
  O   O14       1.0  0.9022618000000001  0.8673317199999999  0.24769586000000002  1.0000
  O   O15       1.0  0.08799739999999996  0.7683258999999998  0.94734932  1.0000
  O   O16       1.0  0.50715887  0.08752671  0.83178162  1.0000
  O   O17       1.0  0.27620007000000013  0.9991359200000001  0.42817275  1.0000
  O   O18       1.0  0.52077682  0.44107516999999996  0.69060156  1.0000
