data_image0
_chemical_formula_structural       K4N4O12
_chemical_formula_sum              "K4 N4 O12"
_cell_length_a       5.602235
_cell_length_b       6.405085
_cell_length_c       9.268196
_cell_angle_alpha    90.0
_cell_angle_beta     90.0
_cell_angle_gamma    90.0

_space_group_name_H-M_alt    "P 1"
_space_group_IT_number       1

loop_
  _space_group_symop_operation_xyz
  'x, y, z'

loop_
  _atom_site_type_symbol
  _atom_site_label
  _atom_site_symmetry_multiplicity
  _atom_site_fract_x
  _atom_site_fract_y
  _atom_site_fract_z
  _atom_site_occupancy
  K   K1        1.0  0.25  0.135966  0.389954  1.0000
  K   K2        1.0  0.75  0.364034  0.8899539999999999  1.0000
  K   K3        1.0  0.25  0.635966  0.11004599999999999  1.0000
  K   K4        1.0  0.75  0.8640340000000001  0.610046  1.0000
  N   N1        1.0  0.75  0.8853710000000001  0.134147  1.0000
  N   N2        1.0  0.25  0.614629  0.6341469999999999  1.0000
  N   N3        1.0  0.25  0.11462900000000001  0.8658529999999999  1.0000
  N   N4        1.0  0.75  0.3853710000000001  0.365853  1.0000
  O   O1        1.0  0.25  0.7740960000000001  0.5516959999999999  1.0000
  O   O2        1.0  0.553714  0.46398500000000004  0.325762  1.0000
  O   O3        1.0  0.446286  0.536015  0.6742379999999999  1.0000
  O   O4        1.0  0.946286  0.46398500000000004  0.325762  1.0000
  O   O5        1.0  0.446286  0.036015  0.825762  1.0000
  O   O6        1.0  0.053714  0.036015  0.825762  1.0000
  O   O7        1.0  0.053714  0.536015  0.6742379999999999  1.0000
  O   O8        1.0  0.553714  0.963985  0.174238  1.0000
  O   O9        1.0  0.25  0.274096  0.9483039999999999  1.0000
  O   O10       1.0  0.75  0.22590400000000002  0.4483039999999999  1.0000
  O   O11       1.0  0.75  0.725904  0.051696  1.0000
  O   O12       1.0  0.946286  0.963985  0.174238  1.0000
