data_image0
_chemical_formula_structural       Na4Sn2Ge4H4O16
_chemical_formula_sum              "Na4 Sn2 Ge4 H4 O16"
_cell_length_a       5.677799
_cell_length_b       5.951078514660179
_cell_length_c       11.474807076666343
_cell_angle_alpha    87.61990760493912
_cell_angle_beta     80.50560647019893
_cell_angle_gamma    75.49240285239404

_space_group_name_H-M_alt    "P 1"
_space_group_IT_number       1

loop_
  _space_group_symop_operation_xyz
  'x, y, z'

loop_
  _atom_site_type_symbol
  _atom_site_label
  _atom_site_symmetry_multiplicity
  _atom_site_fract_x
  _atom_site_fract_y
  _atom_site_fract_z
  _atom_site_occupancy
  Na  Na1       1.0  0.7823560000000002  0.38776799999999995  0.56404  1.0000
  Na  Na2       1.0  0.21764400000000003  0.612232  0.43596  1.0000
  Na  Na3       1.0  0.497634  0.180645  0.853259  1.0000
  Na  Na4       1.0  0.5023660000000001  0.819355  0.146741  1.0000
  Sn  Sn1       1.0  0.0  0.0  0.0  1.0000
  Sn  Sn2       1.0  0.5  0.0  0.5  1.0000
  Ge  Ge1       1.0  0.31778000000000006  0.7237519999999998  0.748821  1.0000
  Ge  Ge2       1.0  0.68222  0.276248  0.251179  1.0000
  Ge  Ge3       1.0  0.82935  0.561685  0.8713989999999999  1.0000
  Ge  Ge4       1.0  0.17065000000000002  0.438315  0.128601  1.0000
  H   H1        1.0  0.207862  0.310447  0.637185  1.0000
  H   H2        1.0  0.7921380000000001  0.689553  0.362815  1.0000
  H   H3        1.0  0.7790010000000002  0.919329  0.656478  1.0000
  H   H4        1.0  0.22099900000000003  0.080671  0.343522  1.0000
  O   O1        1.0  0.750077  0.830448  0.944973  1.0000
  O   O2        1.0  0.249923  0.169552  0.055027  1.0000
  O   O3        1.0  0.7822000000000002  0.320696  0.9564149999999999  1.0000
  O   O4        1.0  0.21780000000000002  0.679304  0.043585  1.0000
  O   O5        1.0  0.14045100000000005  0.508946  0.790656  1.0000
  O   O6        1.0  0.8595490000000002  0.491054  0.209344  1.0000
  O   O7        1.0  0.6314970000000001  0.568844  0.761625  1.0000
  O   O8        1.0  0.368503  0.431156  0.23837499999999998  1.0000
  O   O9        1.0  0.20436800000000005  0.9758079999999999  0.8335839999999999  1.0000
  O   O10       1.0  0.7956320000000001  0.024192  0.166416  1.0000
  O   O11       1.0  0.323171  0.762208  0.597193  1.0000
  O   O12       1.0  0.676829  0.237792  0.4028070000000001  1.0000
  O   O13       1.0  0.20445  0.277133  0.554548  1.0000
  O   O14       1.0  0.79555  0.722867  0.44545199999999996  1.0000
  O   O15       1.0  0.649481  0.058018  0.64752  1.0000
  O   O16       1.0  0.35051899999999997  0.941982  0.35248  1.0000
