data_image0
_chemical_formula_structural       Nb4Cl16F4
_chemical_formula_sum              "Nb4 Cl16 F4"
_cell_length_a       8.276188826671095
_cell_length_b       9.295928285919606
_cell_length_c       10.025472976256221
_cell_angle_alpha    77.2075607188112
_cell_angle_beta     67.74517621231008
_cell_angle_gamma    69.25761046766148

_space_group_name_H-M_alt    "P 1"
_space_group_IT_number       1

loop_
  _space_group_symop_operation_xyz
  'x, y, z'

loop_
  _atom_site_type_symbol
  _atom_site_label
  _atom_site_symmetry_multiplicity
  _atom_site_fract_x
  _atom_site_fract_y
  _atom_site_fract_z
  _atom_site_occupancy
  Nb  Nb1       1.0  0.9865524299999999  0.20409223000000004  0.72777394  1.0000
  Nb  Nb2       1.0  0.013447569999999959  0.7959077700000001  0.27222606000000005  1.0000
  Nb  Nb3       1.0  0.7582209700000001  0.2659707599999999  0.17217662  1.0000
  Nb  Nb4       1.0  0.24177903000000003  0.73402924  0.8278233800000001  1.0000
  Cl  Cl1       1.0  0.84206203  0.46023534999999993  0.6872660500000001  1.0000
  Cl  Cl2       1.0  0.15793796999999998  0.5397646499999998  0.31273395000000004  1.0000
  Cl  Cl3       1.0  0.63181569  0.51627047  0.09849978000000001  1.0000
  Cl  Cl4       1.0  0.36818431  0.4837295299999999  0.9015002200000001  1.0000
  Cl  Cl5       1.0  0.64458654  0.28066415999999994  0.41585988000000007  1.0000
  Cl  Cl6       1.0  0.35541346  0.71933584  0.58414012  1.0000
  Cl  Cl7       1.0  0.12008502000000003  0.14663856000000003  0.49400218  1.0000
  Cl  Cl8       1.0  0.8799149799999998  0.8533614399999999  0.5059978200000002  1.0000
  Cl  Cl9       1.0  0.4660946199999998  0.82430588  0.8355120700000002  1.0000
  Cl  Cl10      1.0  0.5339053800000001  0.17569411999999998  0.16448793000000003  1.0000
  Cl  Cl11      1.0  0.038695599999999934  0.2937549300000001  0.14067945000000004  1.0000
  Cl  Cl12      1.0  0.9613044  0.7062450699999999  0.8593205500000001  1.0000
  Cl  Cl13      1.0  0.75896655  0.75932633  0.25477096000000005  1.0000
  Cl  Cl14      1.0  0.24103345  0.24067367  0.74522904  1.0000
  Cl  Cl15      1.0  0.26689214000000006  0.8766433599999999  0.22545153000000007  1.0000
  Cl  Cl16      1.0  0.73310786  0.12335663999999999  0.7745484700000002  1.0000
  F   F1        1.0  0.88371702  0.21705672  0.9535387600000002  1.0000
  F   F2        1.0  0.11628297999999992  0.7829432800000001  0.04646124000000001  1.0000
  F   F3        1.0  0.10454563000000004  0.97186486  0.79698017  1.0000
  F   F4        1.0  0.89545437  0.028135139999999996  0.20301983000000004  1.0000
