data_image0
_chemical_formula_structural       Cd4S4O12
_chemical_formula_sum              "Cd4 S4 O12"
_cell_length_a       9.025715
_cell_length_b       4.573479
_cell_length_c       7.283293351582442
_cell_angle_alpha    88.92985652425466
_cell_angle_beta     90.0
_cell_angle_gamma    90.0

_space_group_name_H-M_alt    "P 1"
_space_group_IT_number       1

loop_
  _space_group_symop_operation_xyz
  'x, y, z'

loop_
  _atom_site_type_symbol
  _atom_site_label
  _atom_site_symmetry_multiplicity
  _atom_site_fract_x
  _atom_site_fract_y
  _atom_site_fract_z
  _atom_site_occupancy
  Cd  Cd1       1.0  0.710632  0.785081  0.473117  1.0000
  Cd  Cd2       1.0  0.210632  0.214919  0.026882999999999997  1.0000
  Cd  Cd3       1.0  0.289368  0.214919  0.526883  1.0000
  Cd  Cd4       1.0  0.789368  0.785081  0.9731169999999999  1.0000
  S   S1        1.0  0.571954  0.258493  0.212305  1.0000
  S   S2        1.0  0.071954  0.741507  0.287695  1.0000
  S   S3        1.0  0.428046  0.741507  0.787695  1.0000
  S   S4        1.0  0.928046  0.258493  0.712305  1.0000
  O   O1        1.0  0.902239  0.734765  0.255043  1.0000
  O   O2        1.0  0.402239  0.265235  0.24495699999999998  1.0000
  O   O3        1.0  0.097761  0.26523500000000005  0.7449569999999999  1.0000
  O   O4        1.0  0.597761  0.7347650000000001  0.7550429999999999  1.0000
  O   O5        1.0  0.6098570000000001  0.930161  0.18398099999999998  1.0000
  O   O6        1.0  0.109857  0.069839  0.31601899999999994  1.0000
  O   O7        1.0  0.390143  0.069839  0.8160189999999999  1.0000
  O   O8        1.0  0.8901430000000001  0.930161  0.6839809999999998  1.0000
  O   O9        1.0  0.861119  0.306493  0.9063599999999999  1.0000
  O   O10       1.0  0.361119  0.693507  0.5936399999999998  1.0000
  O   O11       1.0  0.138881  0.693507  0.09364  1.0000
  O   O12       1.0  0.638881  0.306493  0.40636  1.0000
