data_image0
_chemical_formula_structural       Tl8Br16
_chemical_formula_sum              "Tl8 Br16"
_cell_length_a       8.08444429
_cell_length_b       10.41233567
_cell_length_c       10.6033091
_cell_angle_alpha    90.0
_cell_angle_beta     90.0
_cell_angle_gamma    90.0

_space_group_name_H-M_alt    "P 1"
_space_group_IT_number       1

loop_
  _space_group_symop_operation_xyz
  'x, y, z'

loop_
  _atom_site_type_symbol
  _atom_site_label
  _atom_site_symmetry_multiplicity
  _atom_site_fract_x
  _atom_site_fract_y
  _atom_site_fract_z
  _atom_site_occupancy
  Tl  Tl1       1.0  0.67828757  0.25  0.24999999999999997  1.0000
  Tl  Tl2       1.0  0.82171243  0.7500000000000001  0.24999999999999997  1.0000
  Tl  Tl3       1.0  0.32171243  0.7500000000000001  0.75  1.0000
  Tl  Tl4       1.0  0.17828757  0.25  0.75  1.0000
  Tl  Tl5       1.0  0.25  0.0  0.17725168  1.0000
  Tl  Tl6       1.0  0.25  0.5  0.32274832  1.0000
  Tl  Tl7       1.0  0.75  0.0  0.8227483199999999  1.0000
  Tl  Tl8       1.0  0.75  0.5  0.67725168  1.0000
  Br  Br1       1.0  0.35258409  0.1934462  0.04342093  1.0000
  Br  Br2       1.0  0.35258409  0.3065538  0.4565790699999999  1.0000
  Br  Br3       1.0  0.14741591  0.6934462  0.4565790699999999  1.0000
  Br  Br4       1.0  0.14741591  0.8065537999999999  0.04342093  1.0000
  Br  Br5       1.0  0.64741591  0.8065537999999999  0.9565790699999999  1.0000
  Br  Br6       1.0  0.64741591  0.6934462  0.54342093  1.0000
  Br  Br7       1.0  0.85258409  0.3065538  0.54342093  1.0000
  Br  Br8       1.0  0.85258409  0.1934462  0.9565790699999999  1.0000
  Br  Br9       1.0  0.99477574  0.04627722  0.32102004999999995  1.0000
  Br  Br10      1.0  0.99477574  0.45372278  0.17897995  1.0000
  Br  Br11      1.0  0.5052242599999999  0.54627722  0.17897995  1.0000
  Br  Br12      1.0  0.5052242599999999  0.95372278  0.32102004999999995  1.0000
  Br  Br13      1.0  0.00522426  0.95372278  0.6789799499999999  1.0000
  Br  Br14      1.0  0.00522426  0.54627722  0.82102005  1.0000
  Br  Br15      1.0  0.49477574  0.45372278  0.82102005  1.0000
  Br  Br16      1.0  0.49477574  0.04627722  0.6789799499999999  1.0000
