data_image0
_chemical_formula_structural       La12As4I12
_chemical_formula_sum              "La12 As4 I12"
_cell_length_a       10.96413025628969
_cell_length_b       10.963803723998023
_cell_length_c       10.963576697101603
_cell_angle_alpha    109.47007398274248
_cell_angle_beta     109.47187976696367
_cell_angle_gamma    109.46982121610417

_space_group_name_H-M_alt    "P 1"
_space_group_IT_number       1

loop_
  _space_group_symop_operation_xyz
  'x, y, z'

loop_
  _atom_site_type_symbol
  _atom_site_label
  _atom_site_symmetry_multiplicity
  _atom_site_fract_x
  _atom_site_fract_y
  _atom_site_fract_z
  _atom_site_occupancy
  La  La1       1.0  0.7656043500000003  0.53119784  0.5155892699999999  1.0000
  La  La2       1.0  0.98440466  0.5155885699999999  0.24999863999999997  1.0000
  La  La3       1.0  0.53110099  0.51554534  0.76554886  1.0000
  La  La4       1.0  0.25000022  0.7655335099999999  0.7344577599999998  1.0000
  La  La5       1.0  0.5155984600000001  0.7656015799999998  0.5312017599999999  1.0000
  La  La6       1.0  0.7344058000000001  0.24999044000000004  0.7655881799999998  1.0000
  La  La7       1.0  0.51559465  0.24999294  0.98439752  1.0000
  La  La8       1.0  0.7344381100000001  0.9844454299999998  0.9688798599999999  1.0000
  La  La9       1.0  0.7655600699999999  0.7344343499999999  0.2500005399999998  1.0000
  La  La10      1.0  0.96882361  0.7344052499999999  0.9844056199999999  1.0000
  La  La11      1.0  0.25000050999999995  0.9844264799999999  0.5155664  1.0000
  La  La12      1.0  0.9844284300000001  0.96884274  0.7344157699999999  1.0000
  As  As1       1.0  0.75000662  0.75000266  0.7499970299999998  1.0000
  As  As2       1.0  0.99999586  0.7499965299999999  0.49999411999999993  1.0000
  As  As3       1.0  0.7500017500000001  0.49999785999999996  0.9999997799999999  1.0000
  As  As4       1.0  0.50000175  1.0600000000062522e-06  0.74999993  1.0000
  I   I1        1.0  0.2597652400000001  0.74998556  0.24021523000000014  1.0000
  I   I2        1.0  0.7499977500000001  0.009798880000000027  0.49018991999999995  1.0000
  I   I3        1.0  0.009814860000000035  0.49018778  0.74999558  1.0000
  I   I4        1.0  0.019612790000000022  0.2597951399999999  0.009794509999999956  1.0000
  I   I5        1.0  0.4901874300000001  0.24017478  0.48038316  1.0000
  I   I6        1.0  0.009808039999999992  0.019616980000000006  0.25981307  1.0000
  I   I7        1.0  0.24023173999999994  0.48045846999999997  0.4902151099999999  1.0000
  I   I8        1.0  0.24018205  0.2597949399999999  0.74999622  1.0000
  I   I9        1.0  0.4901930400000001  0.7500007599999999  0.009807669999999892  1.0000
  I   I10       1.0  0.48043310000000006  0.49019803999999995  0.24020045999999995  1.0000
  I   I11       1.0  0.75001523  0.24020020999999997  0.25979665  1.0000
  I   I12       1.0  0.25979389  0.009785889999999992  0.01954936999999998  1.0000
