data_image0
_chemical_formula_structural       Re6Cl18
_chemical_formula_sum              "Re6 Cl18"
_cell_length_a       9.34101081114636
_cell_length_b       9.341010300244411
_cell_length_c       9.341010749365106
_cell_angle_alpha    66.85790745447116
_cell_angle_beta     66.85790705616004
_cell_angle_gamma    66.85790477112582

_space_group_name_H-M_alt    "P 1"
_space_group_IT_number       1

loop_
  _space_group_symop_operation_xyz
  'x, y, z'

loop_
  _atom_site_type_symbol
  _atom_site_label
  _atom_site_symmetry_multiplicity
  _atom_site_fract_x
  _atom_site_fract_y
  _atom_site_fract_z
  _atom_site_occupancy
  Re  Re1       1.0  0.35547830999999996  0.35547831  0.11963573000000005  1.0000
  Re  Re2       1.0  0.35547830999999996  0.11963572999999998  0.35547831  1.0000
  Re  Re3       1.0  0.11963573  0.35547831  0.3554783100000001  1.0000
  Re  Re4       1.0  0.88036427  0.6445216899999999  0.6445216900000001  1.0000
  Re  Re5       1.0  0.6445216899999999  0.6445216900000001  0.8803642700000001  1.0000
  Re  Re6       1.0  0.6445216899999999  0.8803642699999998  0.6445216900000001  1.0000
  Cl  Cl1       1.0  0.12213236  0.12213236  0.59105477  1.0000
  Cl  Cl2       1.0  0.12213235999999998  0.59105477  0.12213236000000002  1.0000
  Cl  Cl3       1.0  0.59105477  0.12213235999999997  0.12213235999999998  1.0000
  Cl  Cl4       1.0  0.40894522999999994  0.87786764  0.8778676399999998  1.0000
  Cl  Cl5       1.0  0.8778676399999998  0.87786764  0.4089452300000001  1.0000
  Cl  Cl6       1.0  0.8778676399999998  0.40894523  0.8778676399999998  1.0000
  Cl  Cl7       1.0  0.50917745  0.8272923800000002  0.5091774500000001  1.0000
  Cl  Cl8       1.0  0.50917745  0.50917745  0.8272923800000002  1.0000
  Cl  Cl9       1.0  0.8272923799999999  0.5091774500000001  0.5091774500000001  1.0000
  Cl  Cl10      1.0  0.17270761999999998  0.49082255  0.4908225500000001  1.0000
  Cl  Cl11      1.0  0.49082254999999997  0.17270761999999998  0.49082255000000014  1.0000
  Cl  Cl12      1.0  0.49082254999999997  0.49082255  0.17270762000000006  1.0000
  Cl  Cl13      1.0  0.71960898  0.03606131  0.71960898  1.0000
  Cl  Cl14      1.0  0.71960898  0.71960898  0.03606130999999991  1.0000
  Cl  Cl15      1.0  0.036061309999999985  0.71960898  0.71960898  1.0000
  Cl  Cl16      1.0  0.9639386899999999  0.28039102000000005  0.28039102  1.0000
  Cl  Cl17      1.0  0.28039101999999994  0.96393869  0.28039102  1.0000
  Cl  Cl18      1.0  0.28039102  0.28039102  0.9639386899999999  1.0000
