data_image0
_chemical_formula_structural       Ba4Pr2Ir2O12
_chemical_formula_sum              "Ba4 Pr2 Ir2 O12"
_cell_length_a       6.038394954848181
_cell_length_b       6.034690146065392
_cell_length_c       8.59674804
_cell_angle_alpha    90.0
_cell_angle_beta     90.0
_cell_angle_gamma    89.99983726773351

_space_group_name_H-M_alt    "P 1"
_space_group_IT_number       1

loop_
  _space_group_symop_operation_xyz
  'x, y, z'

loop_
  _atom_site_type_symbol
  _atom_site_label
  _atom_site_symmetry_multiplicity
  _atom_site_fract_x
  _atom_site_fract_y
  _atom_site_fract_z
  _atom_site_occupancy
  Ba  Ba1       1.0  0.5  1.223487951493375e-21  0.24941412  1.0000
  Ba  Ba2       1.0  0.5  1.223487951493375e-21  0.75058588  1.0000
  Ba  Ba3       1.0  0.0  0.5  0.74970435  1.0000
  Ba  Ba4       1.0  0.0  0.5  0.25029565  1.0000
  Pr  Pr1       1.0  0.5  0.5  0.0  1.0000
  Pr  Pr2       1.0  0.0  0.0  0.5  1.0000
  Ir  Ir1       1.0  0.5  0.5  0.5  1.0000
  Ir  Ir2       1.0  0.0  0.0  0.0  1.0000
  O   O1        1.0  0.7875917700000001  0.23878807  0.0  1.0000
  O   O2        1.0  0.5  0.5  0.26892746999999995  1.0000
  O   O3        1.0  0.0  0.0  0.76895234  1.0000
  O   O4        1.0  0.21240823  0.7612119300000001  0.0  1.0000
  O   O5        1.0  0.7131505800000001  0.7380132800000001  0.5  1.0000
  O   O6        1.0  0.28684942  0.26198672000000006  0.5  1.0000
  O   O7        1.0  0.0  0.0  0.23104766  1.0000
  O   O8        1.0  0.5  0.5  0.73107253  1.0000
  O   O9        1.0  0.25559029000000005  0.7189464800000002  0.5  1.0000
  O   O10       1.0  0.74440971  0.28105352000000006  0.5  1.0000
  O   O11       1.0  0.75469813  0.7819230800000001  0.0  1.0000
  O   O12       1.0  0.24530187000000003  0.21807692  0.0  1.0000
