data_image0
_chemical_formula_structural       Cu2H8C4N2Cl6O2
_chemical_formula_sum              "Cu2 H8 C4 N2 Cl6 O2"
_cell_length_a       6.320241
_cell_length_b       7.9217826909917815
_cell_length_c       8.383894773211912
_cell_angle_alpha    71.11153430794951
_cell_angle_beta     76.47625303655975
_cell_angle_gamma    81.972376669456

_space_group_name_H-M_alt    "P 1"
_space_group_IT_number       1

loop_
  _space_group_symop_operation_xyz
  'x, y, z'

loop_
  _atom_site_type_symbol
  _atom_site_label
  _atom_site_symmetry_multiplicity
  _atom_site_fract_x
  _atom_site_fract_y
  _atom_site_fract_z
  _atom_site_occupancy
  Cu  Cu1       1.0  0.703289  0.9113789999999999  0.6124630000000001  1.0000
  Cu  Cu2       1.0  0.29671099999999995  0.08862099999999996  0.3875370000000001  1.0000
  H   H1        1.0  0.969845  0.277637  0.753653  1.0000
  H   H2        1.0  0.030154999999999998  0.7223629999999999  0.24634700000000004  1.0000
  H   H3        1.0  0.913613  0.4620389999999999  0.8584940000000001  1.0000
  H   H4        1.0  0.08638700000000005  0.5379609999999999  0.14150600000000002  1.0000
  H   H5        1.0  0.7190679999999999  0.527215  0.572693  1.0000
  H   H6        1.0  0.28093200000000007  0.47278499999999996  0.427307  1.0000
  H   H7        1.0  0.5099869999999999  0.3600469999999999  0.7088790000000001  1.0000
  H   H8        1.0  0.490013  0.6399529999999999  0.291121  1.0000
  C   C1        1.0  0.884561  0.324804  0.8650240000000001  1.0000
  C   C2        1.0  0.11543900000000003  0.6751959999999999  0.134976  1.0000
  C   C3        1.0  0.56921  0.49535999999999997  0.6752960000000001  1.0000
  C   C4        1.0  0.4307900000000001  0.5046399999999999  0.324704  1.0000
  N   N1        1.0  0.757148  0.22977899999999996  0.9862390000000001  1.0000
  N   N2        1.0  0.24285199999999996  0.770221  0.013761000000000002  1.0000
  Cl  Cl1       1.0  0.6212440000000001  0.9246619999999999  0.359726  1.0000
  Cl  Cl2       1.0  0.378756  0.07533800000000002  0.640274  1.0000
  Cl  Cl3       1.0  0.017891000000000008  0.7595159999999999  0.565442  1.0000
  Cl  Cl4       1.0  0.982109  0.24048399999999998  0.43455800000000006  1.0000
  Cl  Cl5       1.0  0.756028  0.916962  0.85738  1.0000
  Cl  Cl6       1.0  0.24397199999999997  0.08303799999999997  0.14262000000000002  1.0000
  O   O1        1.0  0.477749  0.605733  0.7459420000000001  1.0000
  O   O2        1.0  0.522251  0.39426699999999987  0.25405800000000006  1.0000
